<?xml version="1.0" encoding="UTF-8"?>

<!-- generated on 2022-07-25 13:50:06 by Eclipse SUMO duarouter Version 1.13.0
<configuration xmlns:xsi="http://www.w3.org/2001/XMLSchema-instance" xsi:noNamespaceSchemaLocation="http://sumo.dlr.de/xsd/duarouterConfiguration.xsd">

    <input>
        <net-file value="F:\projects\streamlit\streamlit_book\sumo_demo1\2022-07-25-13-49-47\osm.net.xml"/>
        <route-files value="F:\projects\streamlit\streamlit_book\sumo_demo1\2022-07-25-13-49-47\osm.motorcycle.trips.xml"/>
    </input>

    <output>
        <output-file value="F:\projects\streamlit\streamlit_book\sumo_demo1\2022-07-25-13-49-47\osm.motorcycle.trips.xml.tmp"/>
        <write-trips value="true"/>
    </output>

    <time>
        <begin value="0"/>
        <end value="3600"/>
    </time>

    <report>
        <no-warnings value="true"/>
        <ignore-errors value="true"/>
        <no-step-log value="true"/>
    </report>

</configuration>
-->

<routes xmlns:xsi="http://www.w3.org/2001/XMLSchema-instance" xsi:noNamespaceSchemaLocation="http://sumo.dlr.de/xsd/routes_file.xsd">
    <vType id="moto_motorcycle" vClass="motorcycle"/>
    <trip id="moto0" type="moto_motorcycle" depart="0.00" departLane="best" from="-91828642#1" to="-27811140#0"/>
    <trip id="moto1" type="moto_motorcycle" depart="3.87" departLane="best" departSpeed="max" from="96779088#0" to="-91828642#7"/>
    <trip id="moto2" type="moto_motorcycle" depart="7.74" departLane="best" from="-162311606#0" to="-165397335#0"/>
    <trip id="moto3" type="moto_motorcycle" depart="11.61" departLane="best" from="857565972#0" to="27796679#3"/>
    <trip id="moto4" type="moto_motorcycle" depart="15.48" departLane="best" from="162311606#0" to="99979557"/>
    <trip id="moto5" type="moto_motorcycle" depart="19.35" departLane="best" from="781272626#2" to="27811156#6"/>
    <trip id="moto6" type="moto_motorcycle" depart="23.22" departLane="best" from="-96779084" to="-423287196#2"/>
    <trip id="moto7" type="moto_motorcycle" depart="27.09" departLane="best" from="-27811156#0" to="-99979556#1"/>
    <trip id="moto8" type="moto_motorcycle" depart="30.97" departLane="best" from="99979563#1" to="319055639#1"/>
    <trip id="moto9" type="moto_motorcycle" depart="34.84" departLane="best" from="223942066#0" to="422206263#0"/>
    <trip id="moto10" type="moto_motorcycle" depart="38.71" departLane="best" from="-89637250#2" to="-826049217#0"/>
    <trip id="moto11" type="moto_motorcycle" depart="42.58" departLane="best" from="-422206263#2" to="949327405"/>
    <trip id="moto12" type="moto_motorcycle" depart="46.45" departLane="best" from="89637249#2" to="-89642715#0"/>
    <trip id="moto13" type="moto_motorcycle" depart="50.32" departLane="best" from="223942346" to="-775888149#1"/>
    <trip id="moto14" type="moto_motorcycle" depart="54.19" departLane="best" from="-99979574#0" to="-425461020#4"/>
    <trip id="moto15" type="moto_motorcycle" depart="58.06" departLane="best" from="-162311604#3" to="-141166607#0"/>
    <trip id="moto16" type="moto_motorcycle" depart="61.93" departLane="best" from="390566340#2" to="188614447#2"/>
    <trip id="moto17" type="moto_motorcycle" depart="65.80" departLane="best" from="-775888149#0" to="319055640"/>
    <trip id="moto18" type="moto_motorcycle" depart="69.67" departLane="best" from="-100102162#0" to="-91364633#2"/>
    <trip id="moto19" type="moto_motorcycle" depart="73.54" departLane="best" from="-89637244#2" to="-147606589#0"/>
    <trip id="moto20" type="moto_motorcycle" depart="77.41" departLane="best" from="89637250#0" to="949327407"/>
    <trip id="moto21" type="moto_motorcycle" depart="81.28" departLane="best" from="-161318989#7" to="155883037#2"/>
    <trip id="moto22" type="moto_motorcycle" depart="85.15" departLane="best" from="553681859#2" to="-237175531#2"/>
    <trip id="moto23" type="moto_motorcycle" depart="89.02" departLane="best" from="99979603" to="319677999#3"/>
    <trip id="moto24" type="moto_motorcycle" depart="92.90" departLane="best" from="-91828640#1" to="256938736#4"/>
    <trip id="moto25" type="moto_motorcycle" depart="96.77" departLane="best" from="-444087518" to="-425461020#5"/>
    <trip id="moto26" type="moto_motorcycle" depart="100.64" departLane="best" from="-155900461#4" to="309231778#4"/>
    <trip id="moto27" type="moto_motorcycle" depart="104.51" departLane="best" from="-425461020#5" to="91734407#0"/>
    <trip id="moto28" type="moto_motorcycle" depart="108.38" departLane="best" from="89562363#2" to="-155900461#5"/>
    <trip id="moto29" type="moto_motorcycle" depart="112.25" departLane="best" from="-423287196#1" to="-237318475"/>
    <trip id="moto30" type="moto_motorcycle" depart="116.12" departLane="best" from="99979561#0" to="-165397335#2"/>
    <trip id="moto31" type="moto_motorcycle" depart="119.99" departLane="best" departSpeed="max" from="-99979578#1" to="-91828678#1"/>
    <trip id="moto32" type="moto_motorcycle" depart="123.86" departLane="best" from="-382844528#1" to="137684671#1"/>
    <trip id="moto33" type="moto_motorcycle" depart="127.73" departLane="best" from="-61814416#2" to="91828645#0"/>
    <trip id="moto34" type="moto_motorcycle" depart="131.60" departLane="best" from="99979311#0" to="91828678#0"/>
    <trip id="moto35" type="moto_motorcycle" depart="135.47" departLane="best" from="857565973" to="-27811156#4"/>
    <trip id="moto36" type="moto_motorcycle" depart="139.34" departLane="best" from="155882945" to="-423517904#2"/>
    <trip id="moto37" type="moto_motorcycle" depart="143.21" departLane="best" from="-99979578#0" to="-147606589#1"/>
    <trip id="moto38" type="moto_motorcycle" depart="147.08" departLane="best" from="-74658012#2" to="61879252#1"/>
    <trip id="moto39" type="moto_motorcycle" depart="150.96" departLane="best" from="192105384#4" to="425461020#4"/>
    <trip id="moto40" type="moto_motorcycle" depart="154.83" departLane="best" from="99979310#1" to="256938735#0"/>
    <trip id="moto41" type="moto_motorcycle" depart="158.70" departLane="best" from="155900463#1" to="89562363#0"/>
    <trip id="moto42" type="moto_motorcycle" depart="162.57" departLane="best" from="-27811140#2" to="99978920#0"/>
    <trip id="moto43" type="moto_motorcycle" depart="166.44" departLane="best" from="-422206222#3" to="425461020#1"/>
    <trip id="moto44" type="moto_motorcycle" depart="170.31" departLane="best" from="99979616" to="99979615"/>
    <trip id="moto45" type="moto_motorcycle" depart="174.18" departLane="best" from="89637281" to="89637281"/>
    <trip id="moto46" type="moto_motorcycle" depart="178.05" departLane="best" from="-96779084" to="-27811140#3"/>
    <trip id="moto47" type="moto_motorcycle" depart="181.92" departLane="best" from="826049217#2" to="423517904#2"/>
    <trip id="moto48" type="moto_motorcycle" depart="185.79" departLane="best" from="291319631#3" to="-779254400"/>
    <trip id="moto49" type="moto_motorcycle" depart="189.66" departLane="best" from="857565971" to="-162311604#4"/>
    <trip id="moto50" type="moto_motorcycle" depart="193.53" departLane="best" from="105242464" to="-854929433#2"/>
    <trip id="moto51" type="moto_motorcycle" depart="197.40" departLane="best" from="826049218" to="256938735#4"/>
    <trip id="moto52" type="moto_motorcycle" depart="201.27" departLane="best" from="-61814416#2" to="-165486156#3"/>
    <trip id="moto53" type="moto_motorcycle" depart="205.14" departLane="best" from="62352731#0" to="89566371#3"/>
    <trip id="moto54" type="moto_motorcycle" depart="209.01" departLane="best" from="-423517904#2" to="781272624#2"/>
    <trip id="moto55" type="moto_motorcycle" depart="212.89" departLane="best" from="137679760#1" to="-89637282#0"/>
    <trip id="moto56" type="moto_motorcycle" depart="216.76" departLane="best" from="61877416#1" to="-524568471#3"/>
    <trip id="moto57" type="moto_motorcycle" depart="220.63" departLane="best" from="-91364623#0" to="89566371#4"/>
    <trip id="moto58" type="moto_motorcycle" depart="224.50" departLane="best" from="99978920#1" to="-857565970#2"/>
    <trip id="moto59" type="moto_motorcycle" depart="228.37" departLane="best" from="99979560#0" to="188614447#1"/>
    <trip id="moto60" type="moto_motorcycle" depart="232.24" departLane="best" from="162311606#4" to="425461020#5"/>
    <trip id="moto61" type="moto_motorcycle" depart="236.11" departLane="best" from="-89637250#0" to="89545382#0"/>
    <trip id="moto62" type="moto_motorcycle" depart="239.98" departLane="best" from="425461020#0" to="-89637249#2"/>
    <trip id="moto63" type="moto_motorcycle" depart="243.85" departLane="best" from="91364623#0" to="27811156#2"/>
    <trip id="moto64" type="moto_motorcycle" depart="247.72" departLane="best" from="-100102162#0" to="-89545382#1"/>
    <trip id="moto65" type="moto_motorcycle" depart="251.59" departLane="best" from="291319631#1" to="-91828642#5"/>
    <trip id="moto66" type="moto_motorcycle" depart="255.46" departLane="best" from="775888147#1" to="52502392#1"/>
    <trip id="moto67" type="moto_motorcycle" depart="259.33" departLane="best" from="319125074#4" to="-1015404009"/>
    <trip id="moto68" type="moto_motorcycle" depart="263.20" departLane="best" from="-318198216#2" to="99978916#0"/>
    <trip id="moto69" type="moto_motorcycle" depart="267.07" departLane="best" from="-61814416#2" to="89545382#0"/>
    <trip id="moto71" type="moto_motorcycle" depart="274.82" departLane="best" from="27811156#3" to="-854929433#0"/>
    <trip id="moto72" type="moto_motorcycle" depart="278.69" departLane="best" from="165397335#1" to="-256938735#4"/>
    <trip id="moto73" type="moto_motorcycle" depart="282.56" departLane="best" from="100944617" to="-422848103"/>
    <trip id="moto74" type="moto_motorcycle" depart="286.43" departLane="best" departSpeed="max" from="1044280141#0" to="91364633#3"/>
    <trip id="moto75" type="moto_motorcycle" depart="290.30" departLane="best" from="187816228" to="27796679#3"/>
    <trip id="moto76" type="moto_motorcycle" depart="294.17" departLane="best" from="-99979560#2" to="237175531#2"/>
    <trip id="moto77" type="moto_motorcycle" depart="298.04" departLane="best" from="524568471#3" to="854929432#3"/>
    <trip id="moto78" type="moto_motorcycle" depart="301.91" departLane="best" from="223957412" to="-425461020#2"/>
    <trip id="moto79" type="moto_motorcycle" depart="305.78" departLane="best" from="-27811156#5" to="27811140#1"/>
    <trip id="moto80" type="moto_motorcycle" depart="309.65" departLane="best" departSpeed="max" from="-89637249#3" to="422206222#0"/>
    <trip id="moto81" type="moto_motorcycle" depart="313.52" departLane="best" from="425459418" to="-158323735#1"/>
    <trip id="moto82" type="moto_motorcycle" depart="317.39" departLane="best" from="-187816228" to="61816161#6"/>
    <trip id="moto83" type="moto_motorcycle" depart="321.26" departLane="best" from="857565974" to="27796679#0"/>
    <trip id="moto84" type="moto_motorcycle" depart="325.13" departLane="best" from="-192105384#2" to="99978920#0"/>
    <trip id="moto85" type="moto_motorcycle" depart="329.00" departLane="best" from="423517904#0" to="106972918"/>
    <trip id="moto86" type="moto_motorcycle" depart="332.88" departLane="best" from="1060254067#2" to="444087516"/>
    <trip id="moto87" type="moto_motorcycle" depart="336.75" departLane="best" from="826049216" to="-162311599#0"/>
    <trip id="moto88" type="moto_motorcycle" depart="340.62" departLane="best" from="89637282#0" to="-61814416#5"/>
    <trip id="moto89" type="moto_motorcycle" depart="344.49" departLane="best" from="137684671#4" to="27811151#0"/>
    <trip id="moto90" type="moto_motorcycle" depart="348.36" departLane="best" from="-161318989#6" to="432530595"/>
    <trip id="moto91" type="moto_motorcycle" depart="352.23" departLane="best" from="-162311606#0" to="-444087518"/>
    <trip id="moto92" type="moto_motorcycle" depart="356.10" departLane="best" from="422206243#2" to="-89637282#1"/>
    <trip id="moto93" type="moto_motorcycle" depart="359.97" departLane="best" from="162311603" to="1061577694#0"/>
    <trip id="moto94" type="moto_motorcycle" depart="363.84" departLane="best" from="524568467#1" to="-91828642#0"/>
    <trip id="moto95" type="moto_motorcycle" depart="367.71" departLane="best" from="162311606#0" to="61814416#1"/>
    <trip id="moto96" type="moto_motorcycle" depart="371.58" departLane="best" from="147606589#3" to="432974118#5"/>
    <trip id="moto97" type="moto_motorcycle" depart="375.45" departLane="best" from="99979556#2" to="162311604#4"/>
    <trip id="moto98" type="moto_motorcycle" depart="379.32" departLane="best" from="-390566340#0" to="-524568471#2"/>
    <trip id="moto99" type="moto_motorcycle" depart="383.19" departLane="best" from="162311604#3" to="-854929433#0"/>
    <trip id="moto100" type="moto_motorcycle" depart="387.06" departLane="best" from="89637244#1" to="254468840"/>
    <trip id="moto101" type="moto_motorcycle" depart="390.93" departLane="best" from="94327820#0" to="155882951#0"/>
    <trip id="moto102" type="moto_motorcycle" depart="394.81" departLane="best" from="-155900474" to="309231778#2"/>
    <trip id="moto103" type="moto_motorcycle" depart="398.68" departLane="best" from="161318989#5" to="137684671#3"/>
    <trip id="moto104" type="moto_motorcycle" depart="402.55" departLane="best" from="99979574#0" to="-89637282#1"/>
    <trip id="moto105" type="moto_motorcycle" depart="406.42" departLane="best" from="27811151#0" to="27811140#4"/>
    <trip id="moto106" type="moto_motorcycle" depart="410.29" departLane="best" from="-478976485" to="425459416#0"/>
    <trip id="moto107" type="moto_motorcycle" depart="414.16" departLane="best" from="422206222#1" to="91828645#1"/>
    <trip id="moto108" type="moto_motorcycle" depart="418.03" departLane="best" from="318198216#3" to="91828639#1"/>
    <trip id="moto109" type="moto_motorcycle" depart="421.90" departLane="best" from="781272624#2" to="-155900473"/>
    <trip id="moto110" type="moto_motorcycle" depart="425.77" departLane="best" from="155883037#1" to="-159796724"/>
    <trip id="moto111" type="moto_motorcycle" depart="429.64" departLane="best" from="-137684671#4" to="553681859#1"/>
    <trip id="moto112" type="moto_motorcycle" depart="433.51" departLane="best" from="91828640#1" to="-319830357"/>
    <trip id="moto114" type="moto_motorcycle" depart="441.25" departLane="best" from="-91828678#1" to="-91828642#3"/>
    <trip id="moto115" type="moto_motorcycle" depart="445.12" departLane="best" from="-857565970#1" to="949327406#1"/>
    <trip id="moto116" type="moto_motorcycle" depart="448.99" departLane="best" from="192105382" to="-162311606#0"/>
    <trip id="moto117" type="moto_motorcycle" depart="452.87" departLane="best" from="99979559#1" to="-61814416#5"/>
    <trip id="moto118" type="moto_motorcycle" depart="456.74" departLane="best" from="190247403#2" to="-99979560#0"/>
    <trip id="moto120" type="moto_motorcycle" depart="464.48" departLane="best" departSpeed="max" from="254468843" to="99979624"/>
    <trip id="moto121" type="moto_motorcycle" depart="468.35" departLane="best" from="192105382" to="192105384#4"/>
    <trip id="moto123" type="moto_motorcycle" depart="476.09" departLane="best" from="99979559#1" to="155900473"/>
    <trip id="moto124" type="moto_motorcycle" depart="479.96" departLane="best" from="256938735#1" to="89637244#2"/>
    <trip id="moto125" type="moto_motorcycle" depart="483.83" departLane="best" from="141166589#2" to="99979556#0"/>
    <trip id="moto126" type="moto_motorcycle" depart="487.70" departLane="best" from="89637244#1" to="-137679759#0"/>
    <trip id="moto127" type="moto_motorcycle" depart="491.57" departLane="best" from="524568467#2" to="106972916"/>
    <trip id="moto128" type="moto_motorcycle" depart="495.44" departLane="best" from="422206263#1" to="91364633#2"/>
    <trip id="moto129" type="moto_motorcycle" depart="499.31" departLane="best" from="-857565974" to="-99979553#0"/>
    <trip id="moto130" type="moto_motorcycle" depart="503.18" departLane="best" from="91205109#1" to="422206222#0"/>
    <trip id="moto131" type="moto_motorcycle" depart="507.05" departLane="best" from="-91828642#7" to="256938736#3"/>
    <trip id="moto132" type="moto_motorcycle" depart="510.92" departLane="best" from="-61814416#3" to="857565976"/>
    <trip id="moto133" type="moto_motorcycle" depart="514.80" departLane="best" from="30685566#1" to="27811740#0"/>
    <trip id="moto134" type="moto_motorcycle" depart="518.67" departLane="best" from="27811156#5" to="91364633#2"/>
    <trip id="moto135" type="moto_motorcycle" depart="522.54" departLane="best" departSpeed="max" from="1060254072" to="256938735#0"/>
    <trip id="moto136" type="moto_motorcycle" depart="526.41" departLane="best" from="436666796#0" to="-162311604#2"/>
    <trip id="moto137" type="moto_motorcycle" depart="530.28" departLane="best" from="-318198216#2" to="-237318475"/>
    <trip id="moto138" type="moto_motorcycle" depart="534.15" departLane="best" from="165397335#0" to="99979556#3"/>
    <trip id="moto139" type="moto_motorcycle" depart="538.02" departLane="best" from="99978916#0" to="-265041450#0"/>
    <trip id="moto140" type="moto_motorcycle" depart="541.89" departLane="best" from="425461020#5" to="99979561#1"/>
    <trip id="moto141" type="moto_motorcycle" depart="545.76" departLane="best" from="1075931142" to="390566342"/>
    <trip id="moto142" type="moto_motorcycle" depart="549.63" departLane="best" from="-1061577694#2" to="89637284#1"/>
    <trip id="moto143" type="moto_motorcycle" depart="553.50" departLane="best" from="-423517904#0" to="-155882951#1"/>
    <trip id="moto145" type="moto_motorcycle" depart="561.24" departLane="best" from="-165397335#1" to="89638687#1"/>
    <trip id="moto146" type="moto_motorcycle" depart="565.11" departLane="best" from="-256938735#1" to="141166589#0"/>
    <trip id="moto147" type="moto_motorcycle" depart="568.98" departLane="best" from="943472402" to="1060254067#1"/>
    <trip id="moto148" type="moto_motorcycle" depart="572.86" departLane="best" from="444087520#2" to="-27796679#5"/>
    <trip id="moto149" type="moto_motorcycle" depart="576.73" departLane="best" from="957457980#1" to="89562363#3"/>
    <trip id="moto150" type="moto_motorcycle" depart="580.60" departLane="best" from="-165486156#1" to="422206263#1"/>
    <trip id="moto151" type="moto_motorcycle" depart="584.47" departLane="best" from="857565972#1" to="141166589#1"/>
    <trip id="moto152" type="moto_motorcycle" depart="588.34" departLane="best" from="256938736#2" to="-1060254067#1"/>
    <trip id="moto153" type="moto_motorcycle" depart="592.21" departLane="best" from="-237022774" to="237175531#2"/>
    <trip id="moto154" type="moto_motorcycle" depart="596.08" departLane="best" from="-422206243#2" to="-425461020#0"/>
    <trip id="moto155" type="moto_motorcycle" depart="599.95" departLane="best" from="89637182#1" to="-91828640#0"/>
    <trip id="moto156" type="moto_motorcycle" depart="603.82" departLane="best" from="-265043745" to="-237175532#0"/>
    <trip id="moto157" type="moto_motorcycle" depart="607.69" departLane="best" departSpeed="max" from="-524568471#4" to="-91364633#2"/>
    <trip id="moto158" type="moto_motorcycle" depart="611.56" departLane="best" from="444087520#1" to="162311606#1"/>
    <trip id="moto159" type="moto_motorcycle" depart="615.43" departLane="best" from="161318989#2" to="141166607#2"/>
    <trip id="moto160" type="moto_motorcycle" depart="619.30" departLane="best" from="-161318989#0" to="27811140#3"/>
    <trip id="moto161" type="moto_motorcycle" depart="623.17" departLane="best" from="-155882951#1" to="-854929433#0"/>
    <trip id="moto162" type="moto_motorcycle" depart="627.04" departLane="best" from="162311603" to="141166589#0"/>
    <trip id="moto163" type="moto_motorcycle" depart="630.91" departLane="best" from="425461020#1" to="-423517904#3"/>
    <trip id="moto164" type="moto_motorcycle" depart="634.79" departLane="best" departSpeed="max" from="105830599#0" to="382844528#1"/>
    <trip id="moto165" type="moto_motorcycle" depart="638.66" departLane="best" from="-96779088#2" to="-27796679#3"/>
    <trip id="moto166" type="moto_motorcycle" depart="642.53" departLane="best" from="-165397335#0" to="524568467#1"/>
    <trip id="moto167" type="moto_motorcycle" depart="646.40" departLane="best" from="-93690091#0" to="382844528#2"/>
    <trip id="moto168" type="moto_motorcycle" depart="650.27" departLane="best" from="425461020#1" to="99979555#1"/>
    <trip id="moto169" type="moto_motorcycle" depart="654.14" departLane="best" from="237318474" to="-423517904#0"/>
    <trip id="moto170" type="moto_motorcycle" depart="658.01" departLane="best" from="857565970#1" to="99979559#0"/>
    <trip id="moto171" type="moto_motorcycle" depart="661.88" departLane="best" from="91828645#1" to="826049220"/>
    <trip id="moto172" type="moto_motorcycle" depart="665.75" departLane="best" from="-775888149#1" to="-319830356"/>
    <trip id="moto173" type="moto_motorcycle" depart="669.62" departLane="best" from="-91828642#0" to="-1044280141#0"/>
    <trip id="moto174" type="moto_motorcycle" depart="673.49" departLane="best" from="524568467#1" to="-423517904#3"/>
    <trip id="moto175" type="moto_motorcycle" depart="677.36" departLane="best" from="-96779084" to="432974118#2"/>
    <trip id="moto176" type="moto_motorcycle" depart="681.23" departLane="best" from="61814416#4" to="237318474"/>
    <trip id="moto177" type="moto_motorcycle" depart="685.10" departLane="best" from="-161318989#6" to="-146496699#0"/>
    <trip id="moto178" type="moto_motorcycle" depart="688.97" departLane="best" from="-27811140#2" to="27811156#5"/>
    <trip id="moto179" type="moto_motorcycle" depart="692.85" departLane="best" from="336014580" to="-141166589#1"/>
    <trip id="moto180" type="moto_motorcycle" depart="696.72" departLane="best" from="-422206263#3" to="-256938735#3"/>
    <trip id="moto181" type="moto_motorcycle" depart="700.59" departLane="best" from="-61857817#0" to="-91828640#0"/>
    <trip id="moto182" type="moto_motorcycle" depart="704.46" departLane="best" from="-1044280141#2" to="524568471#4"/>
    <trip id="moto183" type="moto_motorcycle" depart="708.33" departLane="best" from="-318198216#2" to="-99979556#2"/>
    <trip id="moto184" type="moto_motorcycle" depart="712.20" departLane="best" from="-155900461#5" to="89566371#1"/>
    <trip id="moto185" type="moto_motorcycle" depart="716.07" departLane="best" from="-223942407#0" to="-1060254067#1"/>
    <trip id="moto186" type="moto_motorcycle" depart="719.94" departLane="best" from="27811140#2" to="854929432#3"/>
    <trip id="moto187" type="moto_motorcycle" depart="723.81" departLane="best" from="91828642#3" to="-162311601"/>
    <trip id="moto188" type="moto_motorcycle" depart="727.68" departLane="best" from="857565970#1" to="-61814416#5"/>
    <trip id="moto189" type="moto_motorcycle" depart="731.55" departLane="best" from="256938731" to="162311604#3"/>
    <trip id="moto190" type="moto_motorcycle" depart="735.42" departLane="best" from="-91828642#0" to="-91828642#3"/>
    <trip id="moto191" type="moto_motorcycle" depart="739.29" departLane="best" from="-27811156#6" to="161318989#2"/>
    <trip id="moto192" type="moto_motorcycle" depart="743.16" departLane="best" from="-223942251#1" to="161318989#1"/>
    <trip id="moto193" type="moto_motorcycle" depart="747.03" departLane="best" from="319125074#3" to="-318198216#3"/>
    <trip id="moto194" type="moto_motorcycle" depart="750.90" departLane="best" from="52458711" to="553681859#5"/>
    <trip id="moto195" type="moto_motorcycle" depart="754.78" departLane="best" from="223957413" to="318198216#0"/>
    <trip id="moto196" type="moto_motorcycle" depart="758.65" departLane="best" from="27811156#4" to="-27796679#1"/>
    <trip id="moto197" type="moto_motorcycle" depart="762.52" departLane="best" from="89545544" to="27811156#1"/>
    <trip id="moto198" type="moto_motorcycle" depart="766.39" departLane="best" from="-190247403#2" to="91364623#0"/>
    <trip id="moto199" type="moto_motorcycle" depart="770.26" departLane="best" from="155900474" to="-291319631#2"/>
    <trip id="moto200" type="moto_motorcycle" depart="774.13" departLane="best" from="-27811140#4" to="-99979311#0"/>
    <trip id="moto201" type="moto_motorcycle" depart="778.00" departLane="best" from="-91364633#3" to="256938735#4"/>
    <trip id="moto202" type="moto_motorcycle" depart="781.87" departLane="best" from="-265041450#1" to="-94327820#4"/>
    <trip id="moto203" type="moto_motorcycle" depart="785.74" departLane="best" from="-99979560#0" to="265043745"/>
    <trip id="moto204" type="moto_motorcycle" depart="789.61" departLane="best" from="318198216#0" to="1060254070#3"/>
    <trip id="moto205" type="moto_motorcycle" depart="793.48" departLane="best" from="-425461020#2" to="-256938735#4"/>
    <trip id="moto206" type="moto_motorcycle" depart="797.35" departLane="best" from="-137684671#1" to="-91828642#7"/>
    <trip id="moto207" type="moto_motorcycle" depart="801.22" departLane="best" from="-99978916#1" to="-27811151#3"/>
    <trip id="moto208" type="moto_motorcycle" depart="805.09" departLane="best" from="1060254070#1" to="1056474963#0"/>
    <trip id="moto209" type="moto_motorcycle" depart="808.96" departLane="best" from="162311604#3" to="-89637326#1"/>
    <trip id="moto210" type="moto_motorcycle" depart="812.83" departLane="best" from="826049219" to="-99978916#1"/>
    <trip id="moto211" type="moto_motorcycle" depart="816.71" departLane="best" from="949327405" to="99979574#0"/>
    <trip id="moto212" type="moto_motorcycle" depart="820.58" departLane="best" from="-99979311#0" to="162311606#3"/>
    <trip id="moto213" type="moto_motorcycle" depart="824.45" departLane="best" from="89637244#3" to="223957414#1"/>
    <trip id="moto214" type="moto_motorcycle" depart="828.32" departLane="best" from="857565976" to="-863056911"/>
    <trip id="moto215" type="moto_motorcycle" depart="832.19" departLane="best" from="1060254070#1" to="949327407"/>
    <trip id="moto216" type="moto_motorcycle" depart="836.06" departLane="best" from="-423517904#1" to="137684671#4"/>
    <trip id="moto217" type="moto_motorcycle" depart="839.93" departLane="best" from="91828678#0" to="857565970#1"/>
    <trip id="moto218" type="moto_motorcycle" depart="843.80" departLane="best" from="-256938735#4" to="-89545382#1"/>
    <trip id="moto219" type="moto_motorcycle" depart="847.67" departLane="best" from="-256938735#5" to="423531238"/>
    <trip id="moto220" type="moto_motorcycle" depart="851.54" departLane="best" from="826049219" to="223942251#0"/>
    <trip id="moto221" type="moto_motorcycle" depart="855.41" departLane="best" from="162239103#1" to="160774591"/>
    <trip id="moto222" type="moto_motorcycle" depart="859.28" departLane="best" from="99979563#0" to="223957413"/>
    <trip id="moto223" type="moto_motorcycle" depart="863.15" departLane="best" from="-61822411" to="-105830916#0"/>
    <trip id="moto224" type="moto_motorcycle" depart="867.02" departLane="best" from="436666796#1" to="309231778#1"/>
    <trip id="moto225" type="moto_motorcycle" depart="870.89" departLane="best" from="-91364633#2" to="-141166589#0"/>
    <trip id="moto226" type="moto_motorcycle" depart="874.77" departLane="best" from="187816228" to="779254401"/>
    <trip id="moto227" type="moto_motorcycle" depart="878.64" departLane="best" from="-318198216#0" to="61857817#1"/>
    <trip id="moto228" type="moto_motorcycle" depart="882.51" departLane="best" from="-154437487" to="61822411"/>
    <trip id="moto229" type="moto_motorcycle" depart="886.38" departLane="best" from="-141166589#1" to="-422206222#3"/>
    <trip id="moto230" type="moto_motorcycle" depart="890.25" departLane="best" from="-140809511" to="93690090#1"/>
    <trip id="moto231" type="moto_motorcycle" depart="894.12" departLane="best" from="160774588#0" to="99979578#1"/>
    <trip id="moto232" type="moto_motorcycle" depart="897.99" departLane="best" from="52458554#0" to="-390566340#0"/>
    <trip id="moto233" type="moto_motorcycle" depart="901.86" departLane="best" from="-94327820#0" to="61877416#0"/>
    <trip id="moto234" type="moto_motorcycle" depart="905.73" departLane="best" from="89566371#1" to="-91828642#1"/>
    <trip id="moto235" type="moto_motorcycle" depart="909.60" departLane="best" departSpeed="max" from="-233258650" to="-99978916#1"/>
    <trip id="moto236" type="moto_motorcycle" depart="913.47" departLane="best" from="89642716" to="-99979561#0"/>
    <trip id="moto237" type="moto_motorcycle" depart="917.34" departLane="best" from="161318989#0" to="74658012#1"/>
    <trip id="moto238" type="moto_motorcycle" depart="921.21" departLane="best" from="-93690068#1" to="-137684671#4"/>
    <trip id="moto239" type="moto_motorcycle" depart="925.08" departLane="best" from="89637182#1" to="-949327406#0"/>
    <trip id="moto240" type="moto_motorcycle" depart="928.95" departLane="best" from="-265042795" to="27811140#2"/>
    <trip id="moto242" type="moto_motorcycle" depart="936.70" departLane="best" from="-155883037#1" to="61857817#0"/>
    <trip id="moto243" type="moto_motorcycle" depart="940.57" departLane="best" from="382972273" to="957457980#1"/>
    <trip id="moto244" type="moto_motorcycle" depart="944.44" departLane="best" from="-99979556#0" to="237022774"/>
    <trip id="moto245" type="moto_motorcycle" depart="948.31" departLane="best" from="1061577701" to="99979615"/>
    <trip id="moto246" type="moto_motorcycle" depart="952.18" departLane="best" departSpeed="max" from="-854929433#4" to="91828642#5"/>
    <trip id="moto247" type="moto_motorcycle" depart="956.05" departLane="best" from="61862485" to="161318989#0"/>
    <trip id="moto248" type="moto_motorcycle" depart="959.92" departLane="best" from="-224217801#0" to="-422206243#1"/>
    <trip id="moto249" type="moto_motorcycle" depart="963.79" departLane="best" from="190247403#2" to="27811151#2"/>
    <trip id="moto250" type="moto_motorcycle" depart="967.66" departLane="best" from="99979625" to="425461020#5"/>