<?xml version="1.0" encoding="UTF-8"?>
<!-- generated on 2022-07-25 13:50:09.812308 by osmWebWizard.py v1_13_0+0000-4b5bca80615
<configuration>
    <end value="3600"/>
    <max-distance value="2000.0"/>
    <net-file value="F:\projects\streamlit\streamlit_book\sumo_demo1\2022-07-25-13-49-47\osm.net.xml"/>
    <pedestrians value="True"/>
    <period value="2.9509350488539603"/>
    <route-file value="F:\projects\streamlit\streamlit_book\sumo_demo1\2022-07-25-13-49-47\osm.pedestrian.rou.xml"/>
    <output-trip-file value="F:\projects\streamlit\streamlit_book\sumo_demo1\2022-07-25-13-49-47\osm.pedestrian.trips.xml"/>
    <prefix value="ped"/>
    <vehicle-class value="pedestrian"/>
</configuration>

-->
<routes xmlns:xsi="http://www.w3.org/2001/XMLSchema-instance" xsi:noNamespaceSchemaLocation="http://sumo.dlr.de/xsd/routes_file.xsd">
    <vType id="ped_pedestrian" vClass="pedestrian"/>
    <person id="ped0" depart="0.00" type="ped_pedestrian">
        <walk from="-957457980#0" to="-854854150#3"/>
    </person>
    <person id="ped1" depart="2.95" type="ped_pedestrian">
        <walk from="916927131#0" to="-187808010#2"/>
    </person>
    <person id="ped2" depart="5.90" type="ped_pedestrian">
        <walk from="156085175#2" to="-156066573#1"/>
    </person>
    <person id="ped3" depart="8.85" type="ped_pedestrian">
        <walk from="-854780595#7" to="187953264#5"/>
    </person>
    <person id="ped4" depart="11.80" type="ped_pedestrian">
        <walk from="858601980" to="-1044280141#2"/>
    </person>
    <person id="ped5" depart="14.75" type="ped_pedestrian">
        <walk from="982030465#1" to="1050092966"/>
    </person>
    <person id="ped6" depart="17.71" type="ped_pedestrian">
        <walk from="-187953264#5" to="-191934370"/>
    </person>
    <person id="ped7" depart="20.66" type="ped_pedestrian">
        <walk from="857726125#2" to="792235762#1"/>
    </person>
    <person id="ped8" depart="23.61" type="ped_pedestrian">
        <walk from="192109155#2" to="99978636#0"/>
    </person>
    <person id="ped9" depart="26.56" type="ped_pedestrian">
        <walk from="155900456#1" to="236879446#2"/>
    </person>
    <person id="ped10" depart="29.51" type="ped_pedestrian">
        <walk from="88778549#1" to="237042937"/>
    </person>
    <person id="ped11" depart="32.46" type="ped_pedestrian">
        <walk from="560643134#2" to="-156085157#0"/>
    </person>
    <person id="ped12" depart="35.41" type="ped_pedestrian">
        <walk from="-857565973" to="-982030466#1"/>
    </person>
    <person id="ped13" depart="38.36" type="ped_pedestrian">
        <walk from="-187708729" to="-857726123#4"/>
    </person>
    <person id="ped14" depart="41.31" type="ped_pedestrian">
        <walk from="-192105384#2" to="-965511092#1"/>
    </person>
    <person id="ped15" depart="44.26" type="ped_pedestrian">
        <walk from="-943413919#1" to="95918069#1"/>
    </person>
    <person id="ped16" depart="47.21" type="ped_pedestrian">
        <walk from="377250689#2" to="290349222#1"/>
    </person>
    <person id="ped17" depart="50.17" type="ped_pedestrian">
        <walk from="860727760" to="854854169#3"/>
    </person>
    <person id="ped18" depart="53.12" type="ped_pedestrian">
        <walk from="-857565974" to="-156066573#5"/>
    </person>
    <person id="ped19" depart="56.07" type="ped_pedestrian">
        <walk from="-99979560#0" to="-943416393"/>
    </person>
    <person id="ped20" depart="59.02" type="ped_pedestrian">
        <walk from="88779389#4" to="-99979559#1"/>
    </person>
    <person id="ped21" depart="61.97" type="ped_pedestrian">
        <walk from="382972272" to="156066584#3"/>
    </person>
    <person id="ped22" depart="64.92" type="ped_pedestrian">
        <walk from="94327820#4" to="156220849#2"/>
    </person>
    <person id="ped23" depart="67.87" type="ped_pedestrian">
        <walk from="-943413918#3" to="-91828640#0"/>
    </person>
    <person id="ped24" depart="70.82" type="ped_pedestrian">
        <walk from="237022770#5" to="-94327820#4"/>
    </person>
    <person id="ped25" depart="73.77" type="ped_pedestrian">
        <walk from="237057065#2" to="91828642#2"/>
    </person>
    <person id="ped26" depart="76.72" type="ped_pedestrian">
        <walk from="156066609#0" to="-854780595#8"/>
    </person>
    <person id="ped27" depart="79.68" type="ped_pedestrian">
        <walk from="99979563#1" to="188614440"/>
    </person>
    <person id="ped28" depart="82.63" type="ped_pedestrian">
        <walk from="-187953264#2" to="-156085157#2"/>
    </person>
    <person id="ped29" depart="85.58" type="ped_pedestrian">
        <walk from="857492842#0" to="156085175#3"/>
    </person>
    <person id="ped30" depart="88.53" type="ped_pedestrian">
        <walk from="-156210206#2" to="155900461#4"/>
    </person>
    <person id="ped31" depart="91.48" type="ped_pedestrian">
        <walk from="99979562#2" to="192105379#1"/>
    </person>
    <person id="ped32" depart="94.43" type="ped_pedestrian">
        <walk from="99978633#2" to="88778549#0"/>
    </person>
    <person id="ped33" depart="97.38" type="ped_pedestrian">
        <walk from="-1061577696#2" to="779252390#0"/>
    </person>
    <person id="ped34" depart="100.33" type="ped_pedestrian">
        <walk from="-943413919#1" to="363607525#0"/>
    </person>
    <person id="ped35" depart="103.28" type="ped_pedestrian">
        <walk from="-236879445#0" to="156087238#2"/>
    </person>
    <person id="ped36" depart="106.23" type="ped_pedestrian">
        <walk from="156220841#1" to="96779088#2"/>
    </person>
    <person id="ped37" depart="109.18" type="ped_pedestrian">
        <walk from="88779389#3" to="-94327820#5"/>
    </person>
    <person id="ped38" depart="112.14" type="ped_pedestrian">
        <walk from="94327820#0" to="88779379"/>
    </person>
    <person id="ped39" depart="115.09" type="ped_pedestrian">
        <walk from="854857366#0" to="192105380#1"/>
    </person>
    <person id="ped40" depart="118.04" type="ped_pedestrian">
        <walk from="-100102162#0" to="100102162#1"/>
    </person>
    <person id="ped41" depart="120.99" type="ped_pedestrian">
        <walk from="-147606589#2" to="943472402"/>
    </person>
    <person id="ped42" depart="123.94" type="ped_pedestrian">
        <walk from="89637282#2" to="860727742"/>
    </person>
    <person id="ped43" depart="126.89" type="ped_pedestrian">
        <walk from="-99979310#1" to="-156085186#0"/>
    </person>
    <person id="ped44" depart="129.84" type="ped_pedestrian">
        <walk from="-187808010#0" to="187804259#0"/>
    </person>
    <person id="ped45" depart="132.79" type="ped_pedestrian">
        <walk from="-156220848#1" to="854854154#0"/>
    </person>
    <person id="ped46" depart="135.74" type="ped_pedestrian">
        <walk from="854854160#1" to="-237022773#0"/>
    </person>
    <person id="ped47" depart="138.69" type="ped_pedestrian">
        <walk from="156343491#1" to="236879445#0"/>
    </person>
    <person id="ped48" depart="141.64" type="ped_pedestrian">
        <walk from="-943413918#3" to="88779388#0"/>
    </person>
    <person id="ped49" depart="144.60" type="ped_pedestrian">
        <walk from="156085175#4" to="-854780594#2"/>
    </person>
    <person id="ped50" depart="147.55" type="ped_pedestrian">
        <walk from="223942433" to="792235762#1"/>
    </person>
    <person id="ped51" depart="150.50" type="ped_pedestrian">
        <walk from="-524572405#4" to="-99979556#0"/>
    </person>
    <person id="ped52" depart="153.45" type="ped_pedestrian">
        <walk from="99979562#0" to="377250692#2"/>
    </person>
    <person id="ped53" depart="156.40" type="ped_pedestrian">
        <walk from="156210204#3" to="191934363"/>
    </person>
    <person id="ped54" depart="159.35" type="ped_pedestrian">
        <walk from="-237022770#0" to="-857565970#0"/>
    </person>
    <person id="ped55" depart="162.30" type="ped_pedestrian">
        <walk from="1050092970" to="261057632#1"/>
    </person>
    <person id="ped56" depart="165.25" type="ped_pedestrian">
        <walk from="-857726119" to="-854780596#1"/>
    </person>
    <person id="ped57" depart="168.20" type="ped_pedestrian">
        <walk from="-857565974" to="92052928"/>
    </person>
    <person id="ped58" depart="171.15" type="ped_pedestrian">
        <walk from="863304016" to="-156231213#0"/>
    </person>
    <person id="ped59" depart="174.11" type="ped_pedestrian">
        <walk from="-88778549#1" to="439496046"/>
    </person>
    <person id="ped60" depart="177.06" type="ped_pedestrian">
        <walk from="-854780594#6" to="-237022775#2"/>
    </person>
    <person id="ped61" depart="180.01" type="ped_pedestrian">
        <walk from="957457981#1" to="237042930#1"/>
    </person>
    <person id="ped62" depart="182.96" type="ped_pedestrian">
        <walk from="156343489#2" to="854857368#5"/>
    </person>
    <person id="ped63" depart="185.91" type="ped_pedestrian">
        <walk from="-191939406" to="156085188#3"/>
    </person>
    <person id="ped64" depart="188.86" type="ped_pedestrian">
        <walk from="156085176" to="156339450#7"/>
    </person>
    <person id="ped65" depart="191.81" type="ped_pedestrian">
        <walk from="99979311#1" to="-192105379#1"/>
    </person>
    <person id="ped66" depart="194.76" type="ped_pedestrian">
        <walk from="156066609#6" to="1052969443"/>
    </person>
    <person id="ped67" depart="197.71" type="ped_pedestrian">
        <walk from="88778549#1" to="-91828642#0"/>
    </person>
    <person id="ped68" depart="200.66" type="ped_pedestrian">
        <walk from="156085175#2" to="-96779084"/>
    </person>
    <person id="ped69" depart="203.61" type="ped_pedestrian">
        <walk from="-91828642#2" to="943416396#2"/>
    </person>
    <person id="ped70" depart="206.57" type="ped_pedestrian">
        <walk from="156217229" to="88778549#1"/>
    </person>
    <person id="ped71" depart="209.52" type="ped_pedestrian">
        <walk from="236879445#1" to="-156085162#4"/>
    </person>
    <person id="ped72" depart="212.47" type="ped_pedestrian">
        <walk from="99979616" to="860727749"/>
    </person>
    <person id="ped73" depart="215.42" type="ped_pedestrian">
        <walk from="187804259#0" to="-854780594#6"/>
    </person>
    <person id="ped74" depart="218.37" type="ped_pedestrian">
        <walk from="156066609#3" to="-156085186#1"/>
    </person>
    <person id="ped75" depart="221.32" type="ped_pedestrian">
        <walk from="155900456#2" to="99979553#1"/>
    </person>
    <person id="ped76" depart="224.27" type="ped_pedestrian">
        <walk from="156220841#3" to="156085175#4"/>
    </person>
    <person id="ped77" depart="227.22" type="ped_pedestrian">
        <walk from="982030465#2" to="99979562#1"/>
    </person>
    <person id="ped78" depart="230.17" type="ped_pedestrian">
        <walk from="99661970#0" to="237042941#1"/>
    </person>
    <person id="ped79" depart="233.12" type="ped_pedestrian">
        <walk from="224848903#1" to="854780595#2"/>
    </person>
    <person id="ped80" depart="236.07" type="ped_pedestrian">
        <walk from="-156085174#3" to="237057065#1"/>
    </person>
    <person id="ped81" depart="239.03" type="ped_pedestrian">
        <walk from="187953264#1" to="863066494"/>
    </person>
    <person id="ped82" depart="241.98" type="ped_pedestrian">
        <walk from="-319830357" to="982030465#7"/>
    </person>
    <person id="ped83" depart="244.93" type="ped_pedestrian">
        <walk from="-187708729" to="-441144077#0"/>
    </person>
    <person id="ped84" depart="247.88" type="ped_pedestrian">
        <walk from="289366037#0" to="441145916#0"/>
    </person>
    <person id="ped85" depart="250.83" type="ped_pedestrian">
        <walk from="-857726125#1" to="-236946074#3"/>
    </person>
    <person id="ped86" depart="253.78" type="ped_pedestrian">
        <walk from="916927129#3" to="-916927131#1"/>
    </person>
    <person id="ped87" depart="256.73" type="ped_pedestrian">
        <walk from="289362667" to="319055637#0"/>
    </person>
    <person id="ped88" depart="259.68" type="ped_pedestrian">
        <walk from="156085174#2" to="237057065#0"/>
    </person>
    <person id="ped89" depart="262.63" type="ped_pedestrian">
        <walk from="191934378#1" to="957457980#1"/>
    </person>
    <person id="ped90" depart="265.58" type="ped_pedestrian">
        <walk from="-88778552#0" to="156066584#3"/>
    </person>
    <person id="ped91" depart="268.54" type="ped_pedestrian">
        <walk from="-99979560#1" to="854780596#1"/>
    </person>
    <person id="ped92" depart="271.49" type="ped_pedestrian">
        <walk from="-156339450#1" to="156220849#1"/>
    </person>
    <person id="ped93" depart="274.44" type="ped_pedestrian">
        <walk from="99979604" to="99979562#2"/>
    </person>
    <person id="ped94" depart="277.39" type="ped_pedestrian">
        <walk from="-156339450#2" to="-854780594#5"/>
    </person>
    <person id="ped95" depart="280.34" type="ped_pedestrian">
        <walk from="-943413918#3" to="949327407"/>
    </person>
    <person id="ped96" depart="283.29" type="ped_pedestrian">
        <walk from="89637348#0" to="89637282#3"/>
    </person>
    <person id="ped97" depart="286.24" type="ped_pedestrian">
        <walk from="142741654#1" to="-319830357"/>
    </person>
    <person id="ped98" depart="289.19" type="ped_pedestrian">
        <walk from="290349229" to="99979556#0"/>
    </person>
    <person id="ped99" depart="292.14" type="ped_pedestrian">
        <walk from="382844528#1" to="-105830599#0"/>
    </person>
    <person id="ped100" depart="295.09" type="ped_pedestrian">
        <walk from="860356138" to="-99978646"/>
    </person>
    <person id="ped101" depart="298.04" type="ped_pedestrian">
        <walk from="-237042930#2" to="-236946069#2"/>
    </person>
    <person id="ped102" depart="301.00" type="ped_pedestrian">
        <walk from="-224950863#2" to="236946069#1"/>
    </person>
    <person id="ped103" depart="303.95" type="ped_pedestrian">
        <walk from="-943417136" to="290349213#2"/>
    </person>
    <person id="ped104" depart="306.90" type="ped_pedestrian">
        <walk from="776728668#2" to="-577606487#1"/>
    </person>
    <person id="ped105" depart="309.85" type="ped_pedestrian">
        <walk from="363607515#3" to="-943413918#0"/>
    </person>
    <person id="ped106" depart="312.80" type="ped_pedestrian">
        <walk from="187808006#1" to="92052928"/>
    </person>
    <person id="ped107" depart="315.75" type="ped_pedestrian">
        <walk from="860727763" to="-187953264#4"/>
    </person>
    <person id="ped108" depart="318.70" type="ped_pedestrian">
        <walk from="156085176" to="-957457981#1"/>
    </person>
    <person id="ped109" depart="321.65" type="ped_pedestrian">
        <walk from="-1015404008" to="854854166"/>
    </person>
    <person id="ped110" depart="324.60" type="ped_pedestrian">
        <walk from="854780594#12" to="236879446#0"/>
    </person>
    <person id="ped111" depart="327.55" type="ped_pedestrian">
        <walk from="-156339450#5" to="91205109#1"/>
    </person>
    <person id="ped112" depart="330.50" type="ped_pedestrian">
        <walk from="91828678#1" to="224950863#2"/>
    </person>
    <person id="ped113" depart="333.46" type="ped_pedestrian">
        <walk from="860727747" to="237057062"/>
    </person>
    <person id="ped114" depart="336.41" type="ped_pedestrian">
        <walk from="-237063305#1" to="-237022772#1"/>
    </person>
    <person id="ped115" depart="339.36" type="ped_pedestrian">
        <walk from="-99979311#0" to="91828642#4"/>
    </person>
    <person id="ped116" depart="342.31" type="ped_pedestrian">
        <walk from="857565970#1" to="88778549#0"/>
    </person>
    <person id="ped117" depart="345.26" type="ped_pedestrian">
        <walk from="91828642#4" to="-854780594#11"/>
    </person>
    <person id="ped118" depart="348.21" type="ped_pedestrian">
        <walk from="854857367#0" to="91205109#2"/>
    </person>
    <person id="ped119" depart="351.16" type="ped_pedestrian">
        <walk from="-319055637#0" to="946182352"/>
    </person>
    <person id="ped120" depart="354.11" type="ped_pedestrian">
        <walk from="88779376#2" to="99978663#0"/>
    </person>
    <person id="ped121" depart="357.06" type="ped_pedestrian">
        <walk from="857726123#0" to="88779376#1"/>
    </person>
    <person id="ped122" depart="360.01" type="ped_pedestrian">
        <walk from="860091713" to="-943413919#1"/>
    </person>
    <person id="ped123" depart="362.97" type="ped_pedestrian">
        <walk from="854857371" to="-224950863#4"/>
    </person>
    <person id="ped124" depart="365.92" type="ped_pedestrian">
        <walk from="88779385" to="863304014#1"/>
    </person>
    <person id="ped125" depart="368.87" type="ped_pedestrian">
        <walk from="-854781558" to="860356137#1"/>
    </person>
    <person id="ped126" depart="371.82" type="ped_pedestrian">
        <walk from="857565970#0" to="-857565972#1"/>
    </person>
    <person id="ped127" depart="374.77" type="ped_pedestrian">
        <walk from="982030471" to="-96779085#0"/>
    </person>
    <person id="ped128" depart="377.72" type="ped_pedestrian">
        <walk from="99978920#0" to="192109155#2"/>
    </person>
    <person id="ped129" depart="380.67" type="ped_pedestrian">
        <walk from="95918070" to="-236946069#2"/>
    </person>
    <person id="ped130" depart="383.62" type="ped_pedestrian">
        <walk from="982030466#0" to="-943413918#4"/>
    </person>
    <person id="ped131" depart="386.57" type="ped_pedestrian">
        <walk from="-224950863#4" to="156087238#2"/>
    </person>
    <person id="ped132" depart="389.52" type="ped_pedestrian">
        <walk from="792235761#1" to="-99979556#3"/>
    </person>
    <person id="ped133" depart="392.47" type="ped_pedestrian">
        <walk from="156066572#1" to="237042935#1"/>
    </person>
    <person id="ped134" depart="395.43" type="ped_pedestrian">
        <walk from="-92361436#0" to="625069537"/>
    </person>
    <person id="ped135" depart="398.38" type="ped_pedestrian">
        <walk from="1076564400#2" to="-156220848#2"/>
    </person>
    <person id="ped136" depart="401.33" type="ped_pedestrian">
        <walk from="436665906#2" to="1015404009"/>
    </person>
    <person id="ped137" depart="404.28" type="ped_pedestrian">
        <walk from="-99979556#3" to="860727766"/>
    </person>
    <person id="ped138" depart="407.23" type="ped_pedestrian">
        <walk from="-99979553#0" to="156085157#3"/>
    </person>
    <person id="ped139" depart="410.18" type="ped_pedestrian">
        <walk from="156066609#6" to="-99978633#1"/>
    </person>
    <person id="ped140" depart="413.13" type="ped_pedestrian">
        <walk from="-237022772#1" to="156085175#0"/>
    </person>
    <person id="ped141" depart="416.08" type="ped_pedestrian">
        <walk from="95918073#1" to="441145918#0"/>
    </person>
    <person id="ped142" depart="419.03" type="ped_pedestrian">
        <walk from="-99978663#1" to="224950863#6"/>
    </person>
    <person id="ped143" depart="421.98" type="ped_pedestrian">
        <walk from="-100102162#0" to="-982030465#7"/>
    </person>
    <person id="ped144" depart="424.93" type="ped_pedestrian">
        <walk from="156085188#1" to="237042941#3"/>
    </person>
    <person id="ped145" depart="427.89" type="ped_pedestrian">
        <walk from="382844528#3" to="156339450#4"/>
    </person>
    <person id="ped146" depart="430.84" type="ped_pedestrian">
        <walk from="156210720" to="-854780594#6"/>
    </person>
    <person id="ped147" depart="433.79" type="ped_pedestrian">
        <walk from="156343490#0" to="91828644"/>
    </person>
    <person id="ped148" depart="436.74" type="ped_pedestrian">
        <walk from="-187804261#0" to="189100260"/>
    </person>
    <person id="ped149" depart="439.69" type="ped_pedestrian">
        <walk from="363607515#1" to="1050092962#2"/>
    </person>
    <person id="ped150" depart="442.64" type="ped_pedestrian">
        <walk from="860356141" to="854780595#9"/>
    </person>
    <person id="ped151" depart="445.59" type="ped_pedestrian">
        <walk from="441145914#0" to="-857565970#0"/>
    </person>
    <person id="ped152" depart="448.54" type="ped_pedestrian">
        <walk from="-524572405#1" to="-155900474"/>
    </person>
    <person id="ped153" depart="451.49" type="ped_pedestrian">
        <walk from="860732254" to="-156339450#1"/>
    </person>
    <person id="ped154" depart="454.44" type="ped_pedestrian">
        <walk from="-441145918#1" to="532885963"/>
    </person>
    <person id="ped155" depart="457.39" type="ped_pedestrian">
        <walk from="187812261" to="-91364630"/>
    </person>
    <person id="ped156" depart="460.35" type="ped_pedestrian">
        <walk from="382972404" to="-1044280141#1"/>
    </person>
    <person id="ped157" depart="463.30" type="ped_pedestrian">
        <walk from="854780595#9" to="854854164"/>
    </person>
    <person id="ped158" depart="466.25" type="ped_pedestrian">
        <walk from="-224950863#1" to="156085186#1"/>
    </person>
    <person id="ped159" depart="469.20" type="ped_pedestrian">
        <walk from="-382972404" to="982030465#3"/>
    </person>
    <person id="ped160" depart="472.15" type="ped_pedestrian">
        <walk from="191934363" to="-156085162#3"/>
    </person>
    <person id="ped161" depart="475.10" type="ped_pedestrian">
        <walk from="-91828642#1" to="860727767"/>
    </person>
    <person id="ped162" depart="478.05" type="ped_pedestrian">
        <walk from="156220848#1" to="857726119"/>
    </person>
    <person id="ped163" depart="481.00" type="ped_pedestrian">
        <walk from="436665908#0" to="99979556#1"/>
    </person>
    <person id="ped164" depart="483.95" type="ped_pedestrian">
        <walk from="916927130#1" to="290349232"/>
    </person>
    <person id="ped165" depart="486.90" type="ped_pedestrian">
        <walk from="860727741#0" to="224950863#6"/>
    </person>
    <person id="ped166" depart="489.86" type="ped_pedestrian">
        <walk from="91828642#1" to="854780594#4"/>
    </person>
    <person id="ped167" depart="492.81" type="ped_pedestrian">
        <walk from="156343491#0" to="-93690091#1"/>
    </person>
    <person id="ped168" depart="495.76" type="ped_pedestrian">
        <walk from="-91828640#1" to="363607518"/>
    </person>
    <person id="ped169" depart="498.71" type="ped_pedestrian">
        <walk from="854854160#1" to="191934376"/>
    </person>
    <person id="ped170" depart="501.66" type="ped_pedestrian">
        <walk from="360349941#1" to="-949327407"/>
    </person>
    <person id="ped171" depart="504.61" type="ped_pedestrian">
        <walk from="-156339450#9" to="-982030465#5"/>
    </person>
    <person id="ped172" depart="507.56" type="ped_pedestrian">
        <walk from="-943417135#1" to="-99979562#2"/>
    </person>
    <person id="ped173" depart="510.51" type="ped_pedestrian">
        <walk from="156085157#1" to="224848903#2"/>
    </person>
    <person id="ped174" depart="513.46" type="ped_pedestrian">
        <walk from="156085172#0" to="-775888149#1"/>
    </person>
    <person id="ped175" depart="516.41" type="ped_pedestrian">
        <walk from="156085174#3" to="92052927"/>
    </person>
    <person id="ped176" depart="519.36" type="ped_pedestrian">
        <walk from="237057065#1" to="532885961"/>
    </person>
    <person id="ped177" depart="522.32" type="ped_pedestrian">
        <walk from="155900459#1" to="-1044280141#1"/>
    </person>
    <person id="ped178" depart="525.27" type="ped_pedestrian">
        <walk from="1061607190" to="854781558"/>
    </person>
    <person id="ped179" depart="528.22" type="ped_pedestrian">
        <walk from="863066496" to="96779088#1"/>
    </person>
    <person id="ped180" depart="531.17" type="ped_pedestrian">
        <walk from="156085174#2" to="854780595#10"/>
    </person>
    <person id="ped181" depart="534.12" type="ped_pedestrian">
        <walk from="-854780596#1" to="-854780595#8"/>
    </person>
    <person id="ped182" depart="537.07" type="ped_pedestrian">
        <walk from="156209625" to="-156066572#4"/>
    </person>
    <person id="ped183" depart="540.02" type="ped_pedestrian">
        <walk from="1050092964" to="441145919#0"/>
    </person>
    <person id="ped184" depart="542.97" type="ped_pedestrian">
        <walk from="156339450#8" to="-237022772#2"/>
    </person>
    <person id="ped185" depart="545.92" type="ped_pedestrian">
        <walk from="156066584#0" to="237022772#0"/>
    </person>
    <person id="ped186" depart="548.87" type="ped_pedestrian">
        <walk from="-237042930#4" to="156231213#0"/>
    </person>
    <person id="ped187" depart="551.82" type="ped_pedestrian">
        <walk from="-156085162#3" to="155900456#2"/>
    </person>
    <person id="ped188" depart="554.78" type="ped_pedestrian">
        <walk from="854854154#1" to="155900456#2"/>
    </person>
    <person id="ped189" depart="557.73" type="ped_pedestrian">
        <walk from="854780596#2" to="860727742"/>
    </person>
    <person id="ped190" depart="560.68" type="ped_pedestrian">
        <walk from="-91828642#7" to="-187708733#2"/>
    </person>
    <person id="ped191" depart="563.63" type="ped_pedestrian">
        <walk from="-147606589#2" to="223942433"/>
    </person>
    <person id="ped192" depart="566.58" type="ped_pedestrian">
        <walk from="99979625" to="1061607181"/>
    </person>
    <person id="ped193" depart="569.53" type="ped_pedestrian">
        <walk from="965511092#0" to="-524572405#1"/>
    </person>
    <person id="ped194" depart="572.48" type="ped_pedestrian">
        <walk from="-237022771#4" to="441144077#0"/>
    </person>
    <person id="ped195" depart="575.43" type="ped_pedestrian">
        <walk from="237022771#5" to="-854780595#5"/>
    </person>
    <person id="ped196" depart="578.38" type="ped_pedestrian">
        <walk from="560643130#1" to="854854161"/>
    </person>
    <person id="ped197" depart="581.33" type="ped_pedestrian">
        <walk from="-377250689#1" to="290349218"/>
    </person>
    <person id="ped198" depart="584.29" type="ped_pedestrian">
        <walk from="854780595#2" to="-236946069#0"/>
    </person>
    <person id="ped199" depart="587.24" type="ped_pedestrian">
        <walk from="860356148" to="982030469#0"/>
    </person>
    <person id="ped200" depart="590.19" type="ped_pedestrian">
        <walk from="-224950863#4" to="-155904419"/>
    </person>
    <person id="ped201" depart="593.14" type="ped_pedestrian">
        <walk from="-99979556#0" to="441145918#0"/>
    </person>
    <person id="ped202" depart="596.09" type="ped_pedestrian">
        <walk from="982030465#3" to="156066591#0"/>
    </person>
    <person id="ped203" depart="599.04" type="ped_pedestrian">
        <walk from="632893317#4" to="-156339450#7"/>
    </person>
    <person id="ped204" depart="601.99" type="ped_pedestrian">
        <walk from="479464934" to="360349941#1"/>
    </person>
    <person id="ped205" depart="604.94" type="ped_pedestrian">
        <walk from="-192105384#3" to="854854167#1"/>
    </person>
    <person id="ped206" depart="607.89" type="ped_pedestrian">
        <walk from="860732255" to="290148744#4"/>
    </person>
    <person id="ped207" depart="610.84" type="ped_pedestrian">
        <walk from="-237022770#0" to="99979311#0"/>
    </person>
    <person id="ped208" depart="613.79" type="ped_pedestrian">
        <walk from="854857368#1" to="1061577696#2"/>
    </person>
    <person id="ped209" depart="616.75" type="ped_pedestrian">
        <walk from="187953264#6" to="105830599#1"/>
    </person>
    <person id="ped210" depart="619.70" type="ped_pedestrian">
        <walk from="-224950862" to="982030465#7"/>
    </person>
    <person id="ped211" depart="622.65" type="ped_pedestrian">
        <walk from="792235765#3" to="982030469#1"/>
    </person>
    <person id="ped212" depart="625.60" type="ped_pedestrian">
        <walk from="192109155#5" to="187708733#2"/>
    </person>
    <person id="ped213" depart="628.55" type="ped_pedestrian">
        <walk from="156087238#3" to="792235763#0"/>
    </person>
    <person id="ped214" depart="631.50" type="ped_pedestrian">
        <walk from="-943416395" to="863066493"/>
    </person>
    <person id="ped215" depart="634.45" type="ped_pedestrian">
        <walk from="860727741#0" to="-187808010#2"/>
    </person>
    <person id="ped216" depart="637.40" type="ped_pedestrian">
        <walk from="89637348#1" to="-91364623#2"/>
    </person>
    <person id="ped217" depart="640.35" type="ped_pedestrian">
        <walk from="156339450#4" to="290349227"/>
    </person>
    <person id="ped218" depart="643.30" type="ped_pedestrian">
        <walk from="155900456#2" to="-156066572#4"/>
    </person>
    <person id="ped219" depart="646.25" type="ped_pedestrian">
        <walk from="863066492#0" to="-436665907#0"/>
    </person>
    <person id="ped220" depart="649.21" type="ped_pedestrian">
        <walk from="-854780594#3" to="857565972#0"/>
    </person>
    <person id="ped221" depart="652.16" type="ped_pedestrian">
        <walk from="560643132#1" to="-957457981#0"/>
    </person>
    <person id="ped222" depart="655.11" type="ped_pedestrian">
        <walk from="187808006#1" to="854854151#2"/>
    </person>
    <person id="ped223" depart="658.06" type="ped_pedestrian">
        <walk from="479464934" to="375025773#1"/>
    </person>
    <person id="ped224" depart="661.01" type="ped_pedestrian">
        <walk from="-187953264#5" to="-854780596#3"/>
    </person>
    <person id="ped225" depart="663.96" type="ped_pedestrian">
        <walk from="524566662" to="-99978920#0"/>
    </person>
    <person id="ped226" depart="666.91" type="ped_pedestrian">
        <walk from="237057059" to="156343490#0"/>
    </person>
    <person id="ped227" depart="669.86" type="ped_pedestrian">