<?xml version="1.0" encoding="UTF-8"?>

<!-- generated on 2022-07-25 13:50:03 by Eclipse SUMO duarouter Version 1.13.0
<configuration xmlns:xsi="http://www.w3.org/2001/XMLSchema-instance" xsi:noNamespaceSchemaLocation="http://sumo.dlr.de/xsd/duarouterConfiguration.xsd">

    <input>
        <net-file value="F:\projects\streamlit\streamlit_book\sumo_demo1\2022-07-25-13-49-47\osm.net.xml"/>
        <route-files value="F:\projects\streamlit\streamlit_book\sumo_demo1\2022-07-25-13-49-47\osm.truck.trips.xml"/>
    </input>

    <output>
        <output-file value="F:\projects\streamlit\streamlit_book\sumo_demo1\2022-07-25-13-49-47\osm.truck.trips.xml.tmp"/>
        <write-trips value="true"/>
    </output>

    <time>
        <begin value="0"/>
        <end value="3600"/>
    </time>

    <report>
        <no-warnings value="true"/>
        <ignore-errors value="true"/>
        <no-step-log value="true"/>
    </report>

</configuration>
-->

<routes xmlns:xsi="http://www.w3.org/2001/XMLSchema-instance" xsi:noNamespaceSchemaLocation="http://sumo.dlr.de/xsd/routes_file.xsd">
    <vType id="truck_truck" vClass="truck"/>
    <trip id="truck0" type="truck_truck" depart="0.00" departLane="best" from="27811156#6" to="-105830916#2"/>
    <trip id="truck1" type="truck_truck" depart="1.94" departLane="best" departSpeed="max" from="-779254398" to="-52458554#0"/>
    <trip id="truck2" type="truck_truck" depart="3.87" departLane="best" from="432974118#3" to="422206222#2"/>
    <trip id="truck3" type="truck_truck" depart="5.81" departLane="best" from="89637326#0" to="-161318989#3"/>
    <trip id="truck4" type="truck_truck" depart="7.74" departLane="best" departSpeed="max" from="-99979624" to="-1060254070#2"/>
    <trip id="truck5" type="truck_truck" depart="9.68" departLane="best" departSpeed="max" from="-423287196#3" to="158323735#2"/>
    <trip id="truck6" type="truck_truck" depart="11.61" departLane="best" from="-1061607204" to="-422206243#1"/>
    <trip id="truck7" type="truck_truck" depart="13.55" departLane="best" from="309231778#4" to="223942066#1"/>
    <trip id="truck8" type="truck_truck" depart="15.48" departLane="best" departSpeed="max" from="-423287196#3" to="256938736#3"/>
    <trip id="truck9" type="truck_truck" depart="17.42" departLane="best" from="61879252#1" to="-1044280141#0"/>
    <trip id="truck10" type="truck_truck" depart="19.35" departLane="best" from="61862485" to="423314373#1"/>
    <trip id="truck11" type="truck_truck" depart="21.29" departLane="best" from="-91364623#1" to="-27796679#5"/>
    <trip id="truck12" type="truck_truck" depart="23.22" departLane="best" departSpeed="max" from="96779088#0" to="-91828646#1"/>
    <trip id="truck13" type="truck_truck" depart="25.16" departLane="best" from="854929432#3" to="27796679#4"/>
    <trip id="truck14" type="truck_truck" depart="27.09" departLane="best" from="61877416#1" to="436666796#3"/>
    <trip id="truck15" type="truck_truck" depart="29.03" departLane="best" from="161318989#3" to="99979560#1"/>
    <trip id="truck16" type="truck_truck" depart="30.97" departLane="best" from="-957457981#0" to="223957412"/>
    <trip id="truck18" type="truck_truck" depart="34.84" departLane="best" from="89545544" to="254468842"/>
    <trip id="truck19" type="truck_truck" depart="36.77" departLane="best" from="423287196#0" to="-137684671#4"/>
    <trip id="truck20" type="truck_truck" depart="38.71" departLane="best" from="-423517904#1" to="-89637182#0"/>
    <trip id="truck21" type="truck_truck" depart="40.64" departLane="best" from="-155900479#1" to="-52502912#1"/>
    <trip id="truck22" type="truck_truck" depart="42.58" departLane="best" from="-165486156#2" to="-857565970#2"/>
    <trip id="truck23" type="truck_truck" depart="44.51" departLane="best" from="27811156#1" to="-99978914#0"/>
    <trip id="truck24" type="truck_truck" depart="46.45" departLane="best" from="-94327820#5" to="-423517904#1"/>
    <trip id="truck25" type="truck_truck" depart="48.38" departLane="best" from="-684111938" to="94327820#1"/>
    <trip id="truck26" type="truck_truck" depart="50.32" departLane="best" from="309231778#2" to="27811151#0"/>
    <trip id="truck27" type="truck_truck" depart="52.25" departLane="best" from="-291319631#2" to="436666796#3"/>
    <trip id="truck28" type="truck_truck" depart="54.19" departLane="best" from="-27811156#0" to="-99979559#0"/>
    <trip id="truck29" type="truck_truck" depart="56.12" departLane="best" from="99979563#0" to="319126771#1"/>
    <trip id="truck30" type="truck_truck" depart="58.06" departLane="best" departSpeed="max" from="165486156#0" to="422921345"/>
    <trip id="truck31" type="truck_truck" depart="59.99" departLane="best" from="-423517904#2" to="-1061577694#0"/>
    <trip id="truck32" type="truck_truck" depart="61.93" departLane="best" departSpeed="max" from="-89566371#4" to="-826049216"/>
    <trip id="truck33" type="truck_truck" depart="63.87" departLane="best" from="-422206243#2" to="949327406#1"/>
    <trip id="truck34" type="truck_truck" depart="65.80" departLane="best" departSpeed="max" from="89637182#0" to="-89642715#1"/>
    <trip id="truck35" type="truck_truck" depart="67.74" departLane="best" from="318198216#3" to="100102162#1"/>
    <trip id="truck36" type="truck_truck" depart="69.67" departLane="best" from="91364633#1" to="142488977"/>
    <trip id="truck37" type="truck_truck" depart="71.61" departLane="best" from="188614447#1" to="-779254400"/>
    <trip id="truck38" type="truck_truck" depart="73.54" departLane="best" departSpeed="max" from="233257351" to="91205109#0"/>
    <trip id="truck39" type="truck_truck" depart="75.48" departLane="best" from="-99979559#1" to="-524568465"/>
    <trip id="truck40" type="truck_truck" depart="77.41" departLane="best" from="-162311604#0" to="-140809511"/>
    <trip id="truck41" type="truck_truck" depart="79.35" departLane="best" departSpeed="max" from="-223942066#1" to="309231778#4"/>
    <trip id="truck42" type="truck_truck" depart="81.28" departLane="best" from="61816161#2" to="1060254070#2"/>
    <trip id="truck43" type="truck_truck" depart="83.22" departLane="best" departSpeed="max" from="-146496700" to="-99979560#1"/>
    <trip id="truck44" type="truck_truck" depart="85.15" departLane="best" from="99979603" to="165397335#0"/>
    <trip id="truck45" type="truck_truck" depart="87.09" departLane="best" from="99978920#1" to="89562525#1"/>
    <trip id="truck46" type="truck_truck" depart="89.02" departLane="best" departSpeed="max" from="-1056474963#1" to="432974118#3"/>
    <trip id="truck47" type="truck_truck" depart="90.96" departLane="best" from="382844495#2" to="190247403#1"/>
    <trip id="truck48" type="truck_truck" depart="92.90" departLane="best" from="-684111938" to="319126771#2"/>
    <trip id="truck49" type="truck_truck" depart="94.83" departLane="best" departSpeed="max" from="-223942066#1" to="106972916"/>
    <trip id="truck50" type="truck_truck" depart="96.77" departLane="best" from="1060254067#2" to="96779088#1"/>
    <trip id="truck51" type="truck_truck" depart="98.70" departLane="best" departSpeed="max" from="89637182#0" to="-779254400"/>
    <trip id="truck52" type="truck_truck" depart="100.64" departLane="best" departSpeed="max" from="91364630" to="89637182#3"/>
    <trip id="truck53" type="truck_truck" depart="102.57" departLane="best" departSpeed="max" from="-854929433#4" to="319126771#0"/>
    <trip id="truck54" type="truck_truck" depart="104.51" departLane="best" from="256938735#6" to="-27796679#1"/>
    <trip id="truck55" type="truck_truck" depart="106.44" departLane="best" from="52502392#2" to="192105384#1"/>
    <trip id="truck56" type="truck_truck" depart="108.38" departLane="best" departSpeed="max" from="61812079#0" to="165397335#2"/>
    <trip id="truck57" type="truck_truck" depart="110.31" departLane="best" from="-1060254067#0" to="93690090#0"/>
    <trip id="truck58" type="truck_truck" depart="112.25" departLane="best" from="89637244#0" to="854929432#2"/>
    <trip id="truck59" type="truck_truck" depart="114.18" departLane="best" from="-89545382#1" to="-147399827#0"/>
    <trip id="truck60" type="truck_truck" depart="116.12" departLane="best" from="89637182#3" to="949327407"/>
    <trip id="truck61" type="truck_truck" depart="118.05" departLane="best" from="-161318989#2" to="155882970"/>
    <trip id="truck62" type="truck_truck" depart="119.99" departLane="best" from="-155882945" to="61814416#1"/>
    <trip id="truck63" type="truck_truck" depart="121.93" departLane="best" departSpeed="max" from="52502912#0" to="-233257351"/>
    <trip id="truck65" type="truck_truck" depart="125.80" departLane="best" departSpeed="max" from="-62352731#3" to="89637244#2"/>
    <trip id="truck66" type="truck_truck" depart="127.73" departLane="best" departSpeed="max" from="-99979624" to="-425461020#0"/>
    <trip id="truck67" type="truck_truck" depart="129.67" departLane="best" from="162239103#0" to="436666796#4"/>
    <trip id="truck68" type="truck_truck" depart="131.60" departLane="best" from="-414745094#0" to="-89638687#1"/>
    <trip id="truck69" type="truck_truck" depart="133.54" departLane="best" from="99979602#1" to="332813232#1"/>
    <trip id="truck70" type="truck_truck" depart="135.47" departLane="best" departSpeed="max" from="1056474964" to="162239103#1"/>
    <trip id="truck71" type="truck_truck" depart="137.41" departLane="best" departSpeed="max" from="-224217800" to="-52458711"/>
    <trip id="truck72" type="truck_truck" depart="139.34" departLane="best" from="-89642716" to="256938736#2"/>
    <trip id="truck73" type="truck_truck" depart="141.28" departLane="best" from="-423517904#3" to="-524568471#0"/>
    <trip id="truck74" type="truck_truck" depart="143.21" departLane="best" from="-155882951#1" to="318198216#0"/>
    <trip id="truck75" type="truck_truck" depart="145.15" departLane="best" from="-423517904#2" to="91734407#0"/>
    <trip id="truck76" type="truck_truck" depart="147.08" departLane="best" from="863056911" to="-155900461#1"/>
    <trip id="truck77" type="truck_truck" depart="149.02" departLane="best" from="-422206263#3" to="-237175531#1"/>
    <trip id="truck78" type="truck_truck" depart="150.96" departLane="best" from="91828678#0" to="237318476"/>
    <trip id="truck79" type="truck_truck" depart="152.89" departLane="best" from="1075931142" to="62061433#1"/>
    <trip id="truck80" type="truck_truck" depart="154.83" departLane="best" from="-162311606#4" to="1061607204"/>
    <trip id="truck81" type="truck_truck" depart="156.76" departLane="best" departSpeed="max" from="-99979624" to="142741651#2"/>
    <trip id="truck82" type="truck_truck" depart="158.70" departLane="best" from="425461020#5" to="414745094#2"/>
    <trip id="truck83" type="truck_truck" depart="160.63" departLane="best" from="99979560#1" to="-165397335#1"/>
    <trip id="truck84" type="truck_truck" depart="162.57" departLane="best" from="-99979561#0" to="-92361436#1"/>
    <trip id="truck85" type="truck_truck" depart="164.50" departLane="best" from="89545544" to="-62352731#0"/>
    <trip id="truck86" type="truck_truck" depart="166.44" departLane="best" from="-382844528#0" to="137684671#0"/>
    <trip id="truck87" type="truck_truck" depart="168.37" departLane="best" departSpeed="max" from="-99979624" to="-857565970#2"/>
    <trip id="truck88" type="truck_truck" depart="170.31" departLane="best" from="-52502392#2" to="91828646#1"/>
    <trip id="truck89" type="truck_truck" depart="172.24" departLane="best" departSpeed="max" from="105830599#0" to="89562525#1"/>
    <trip id="truck90" type="truck_truck" depart="174.18" departLane="best" from="162311606#3" to="-141166607#0"/>
    <trip id="truck91" type="truck_truck" depart="176.11" departLane="best" from="99979625" to="854929433#2"/>
    <trip id="truck92" type="truck_truck" depart="178.05" departLane="best" from="99978917" to="92361436#1"/>
    <trip id="truck93" type="truck_truck" depart="179.98" departLane="best" from="-99979560#1" to="-147399827#0"/>
    <trip id="truck94" type="truck_truck" depart="181.92" departLane="best" from="-957457981#0" to="99979578#1"/>
    <trip id="truck95" type="truck_truck" depart="183.86" departLane="best" departSpeed="max" from="-62352731#3" to="62061433#1"/>
    <trip id="truck96" type="truck_truck" depart="185.79" departLane="best" departSpeed="max" from="96779088#0" to="99979616"/>
    <trip id="truck97" type="truck_truck" depart="187.73" departLane="best" departSpeed="max" from="165486156#0" to="432530595"/>
    <trip id="truck98" type="truck_truck" depart="189.66" departLane="best" from="-27796679#4" to="-89637244#2"/>
    <trip id="truck99" type="truck_truck" depart="191.60" departLane="best" from="99978916#1" to="254468842"/>
    <trip id="truck100" type="truck_truck" depart="193.53" departLane="best" from="162311599#1" to="52458554#1"/>
    <trip id="truck101" type="truck_truck" depart="195.47" departLane="best" departSpeed="max" from="-146496699#2" to="256938735#3"/>
    <trip id="truck102" type="truck_truck" depart="197.40" departLane="best" from="155882951#0" to="89562363#0"/>
    <trip id="truck103" type="truck_truck" depart="199.34" departLane="best" from="-155900479#1" to="-382844195"/>
    <trip id="truck104" type="truck_truck" depart="201.27" departLane="best" from="254468111#1" to="422206222#0"/>
    <trip id="truck105" type="truck_truck" depart="203.21" departLane="best" from="-432528029" to="-223957414#0"/>
    <trip id="truck106" type="truck_truck" depart="205.14" departLane="best" from="89637284#0" to="-62352731#0"/>
    <trip id="truck107" type="truck_truck" depart="207.08" departLane="best" from="254468111#0" to="291319631#1"/>
    <trip id="truck108" type="truck_truck" depart="209.01" departLane="best" from="-99979605#1" to="256938735#3"/>
    <trip id="truck109" type="truck_truck" depart="210.95" departLane="best" from="158323735#0" to="93690091#2"/>
    <trip id="truck110" type="truck_truck" depart="212.89" departLane="best" departSpeed="max" from="-414745094#2" to="425461020#3"/>
    <trip id="truck111" type="truck_truck" depart="214.82" departLane="best" from="319980983" to="-89637250#0"/>
    <trip id="truck112" type="truck_truck" depart="216.76" departLane="best" from="-89637182#1" to="52502392#3"/>
    <trip id="truck113" type="truck_truck" depart="218.69" departLane="best" from="-155883037#1" to="142488976"/>
    <trip id="truck114" type="truck_truck" depart="220.63" departLane="best" from="-155883037#2" to="-425461020#2"/>
    <trip id="truck115" type="truck_truck" depart="222.56" departLane="best" from="89637244#3" to="89637249#3"/>
    <trip id="truck116" type="truck_truck" depart="224.50" departLane="best" from="-94327820#4" to="-27811140#2"/>
    <trip id="truck117" type="truck_truck" depart="226.43" departLane="best" from="779254399#1" to="423517904#1"/>
    <trip id="truck118" type="truck_truck" depart="228.37" departLane="best" from="256938736#3" to="99979602#1"/>
    <trip id="truck119" type="truck_truck" depart="230.30" departLane="best" from="318198216#0" to="-1044280141#0"/>
    <trip id="truck121" type="truck_truck" depart="234.17" departLane="best" from="319125074#2" to="94327820#4"/>
    <trip id="truck122" type="truck_truck" depart="236.11" departLane="best" from="-237175532#0" to="-223942251#1"/>
    <trip id="truck123" type="truck_truck" depart="238.04" departLane="best" from="-192105384#3" to="223957413"/>
    <trip id="truck124" type="truck_truck" depart="239.98" departLane="best" from="-775888149#0" to="27796679#5"/>
    <trip id="truck125" type="truck_truck" depart="241.92" departLane="best" from="423531238" to="-422206263#3"/>
    <trip id="truck126" type="truck_truck" depart="243.85" departLane="best" from="27811151#3" to="-779254400"/>
    <trip id="truck127" type="truck_truck" depart="245.79" departLane="best" from="142488976" to="91364633#3"/>
    <trip id="truck128" type="truck_truck" depart="247.72" departLane="best" from="854929432#1" to="-162311604#1"/>
    <trip id="truck129" type="truck_truck" depart="249.66" departLane="best" departSpeed="max" from="-99979624" to="-857565970#0"/>
    <trip id="truck130" type="truck_truck" depart="251.59" departLane="best" from="27811156#3" to="-775888153"/>
    <trip id="truck131" type="truck_truck" depart="253.53" departLane="best" from="436666796#4" to="223942407#1"/>
    <trip id="truck132" type="truck_truck" depart="255.46" departLane="best" from="100944617" to="-1044280141#1"/>
    <trip id="truck133" type="truck_truck" depart="257.40" departLane="best" from="-155900461#3" to="89637281"/>
    <trip id="truck134" type="truck_truck" depart="259.33" departLane="best" from="91203401#4" to="223942066#1"/>
    <trip id="truck136" type="truck_truck" depart="263.20" departLane="best" from="-274927810" to="-233257351"/>
    <trip id="truck137" type="truck_truck" depart="265.14" departLane="best" from="-89545832#1" to="91205109#1"/>
    <trip id="truck138" type="truck_truck" depart="267.07" departLane="best" from="89638687#3" to="-423517904#2"/>
    <trip id="truck139" type="truck_truck" depart="269.01" departLane="best" from="-52502392#2" to="-165486156#0"/>
    <trip id="truck140" type="truck_truck" depart="270.94" departLane="best" departSpeed="max" from="61812079#0" to="89637282#0"/>
    <trip id="truck141" type="truck_truck" depart="272.88" departLane="best" from="-99979574#0" to="291319631#2"/>
    <trip id="truck142" type="truck_truck" depart="274.82" departLane="best" from="-27796679#4" to="93690090#1"/>
    <trip id="truck143" type="truck_truck" depart="276.75" departLane="best" from="89562363#1" to="99979562#0"/>
    <trip id="truck144" type="truck_truck" depart="278.69" departLane="best" from="61957137" to="89637250#2"/>
    <trip id="truck145" type="truck_truck" depart="280.62" departLane="best" from="-1061577694#0" to="524568467#0"/>
    <trip id="truck146" type="truck_truck" depart="282.56" departLane="best" from="-89637282#3" to="93690091#0"/>
    <trip id="truck147" type="truck_truck" depart="284.49" departLane="best" from="61817154#1" to="89566371#2"/>
    <trip id="truck149" type="truck_truck" depart="288.36" departLane="best" from="61814416#2" to="-190247403#2"/>
    <trip id="truck150" type="truck_truck" depart="290.30" departLane="best" from="89566371#3" to="89562363#5"/>
    <trip id="truck151" type="truck_truck" depart="292.23" departLane="best" from="-423314370#0" to="781272626#2"/>
    <trip id="truck152" type="truck_truck" depart="294.17" departLane="best" from="61816161#6" to="-52502392#3"/>
    <trip id="truck153" type="truck_truck" depart="296.10" departLane="best" from="-1060254072" to="-414745094#0"/>
    <trip id="truck154" type="truck_truck" depart="298.04" departLane="best" from="-89637250#2" to="89566371#2"/>
    <trip id="truck155" type="truck_truck" depart="299.97" departLane="best" from="99978914#1" to="-857565971"/>
    <trip id="truck156" type="truck_truck" depart="301.91" departLane="best" from="27811740#1" to="1015404008"/>
    <trip id="truck157" type="truck_truck" depart="303.85" departLane="best" from="99979558" to="188614447#3"/>
    <trip id="truck158" type="truck_truck" depart="305.78" departLane="best" from="93690068#1" to="-223942251#1"/>
    <trip id="truck159" type="truck_truck" depart="307.72" departLane="best" from="99978920#0" to="-319830356"/>
    <trip id="truck160" type="truck_truck" depart="309.65" departLane="best" from="96779089" to="-779254400"/>
    <trip id="truck161" type="truck_truck" depart="311.59" departLane="best" from="-223942066#0" to="106972916"/>
    <trip id="truck162" type="truck_truck" depart="313.52" departLane="best" from="425461020#4" to="-89642715#0"/>
    <trip id="truck163" type="truck_truck" depart="315.46" departLane="best" from="256938735#2" to="161318989#0"/>
    <trip id="truck164" type="truck_truck" depart="317.39" departLane="best" from="-99978914#1" to="254468842"/>
    <trip id="truck165" type="truck_truck" depart="319.33" departLane="best" from="-61814416#2" to="425459416#2"/>
    <trip id="truck166" type="truck_truck" depart="321.26" departLane="best" from="-100102162#2" to="92361436#0"/>
    <trip id="truck167" type="truck_truck" depart="323.20" departLane="best" from="161318989#7" to="432974118#0"/>
    <trip id="truck168" type="truck_truck" depart="325.13" departLane="best" departSpeed="max" from="436666797" to="414745094#1"/>
    <trip id="truck169" type="truck_truck" depart="327.07" departLane="best" departSpeed="max" from="-93690091#2" to="-155883037#3"/>
    <trip id="truck170" type="truck_truck" depart="329.00" departLane="best" from="319125074#3" to="-91828642#0"/>
    <trip id="truck171" type="truck_truck" depart="330.94" departLane="best" departSpeed="max" from="-89566371#4" to="863056911"/>
    <trip id="truck172" type="truck_truck" depart="332.88" departLane="best" from="425459416#1" to="-89637250#0"/>
    <trip id="truck173" type="truck_truck" depart="334.81" departLane="best" from="-89566371#0" to="1056474963#1"/>
    <trip id="truck174" type="truck_truck" depart="336.75" departLane="best" from="-99979561#0" to="-89637244#1"/>
    <trip id="truck175" type="truck_truck" depart="338.68" departLane="best" departSpeed="max" from="-233258650" to="1060254070#0"/>
    <trip id="truck176" type="truck_truck" depart="340.62" departLane="best" from="93690090#0" to="422206222#3"/>
    <trip id="truck177" type="truck_truck" depart="342.55" departLane="best" from="91203401#1" to="27811156#5"/>
    <trip id="truck178" type="truck_truck" depart="344.49" departLane="best" from="-857565970#2" to="223942192"/>
    <trip id="truck179" type="truck_truck" depart="346.42" departLane="best" from="-100102162#0" to="-89566371#1"/>
    <trip id="truck180" type="truck_truck" depart="348.36" departLane="best" from="1015404008" to="255219177"/>
    <trip id="truck181" type="truck_truck" depart="350.29" departLane="best" from="318198216#2" to="142741651#2"/>
    <trip id="truck182" type="truck_truck" depart="352.23" departLane="best" departSpeed="max" from="105830599#0" to="-425461020#3"/>
    <trip id="truck183" type="truck_truck" depart="354.16" departLane="best" from="1075931143#1" to="91364623#1"/>
    <trip id="truck184" type="truck_truck" depart="356.10" departLane="best" from="61816161#7" to="-291319631#0"/>
    <trip id="truck185" type="truck_truck" depart="358.03" departLane="best" departSpeed="max" from="324478165" to="-52458711"/>
    <trip id="truck186" type="truck_truck" depart="359.97" departLane="best" from="-390566342" to="-105830916#1"/>
    <trip id="truck187" type="truck_truck" depart="361.91" departLane="best" departSpeed="max" from="-524568471#4" to="146496700"/>
    <trip id="truck188" type="truck_truck" depart="363.84" departLane="best" from="854929433#0" to="-155900461#5"/>
    <trip id="truck189" type="truck_truck" depart="365.78" departLane="best" departSpeed="max" from="-99979604" to="310010240"/>
    <trip id="truck190" type="truck_truck" depart="367.71" departLane="best" departSpeed="max" from="-382844528#3" to="423314370#2"/>
    <trip id="truck191" type="truck_truck" depart="369.65" departLane="best" departSpeed="max" from="147399827#0" to="-61857815"/>
    <trip id="truck192" type="truck_truck" depart="371.58" departLane="best" from="318198217" to="-1044280141#0"/>
    <trip id="truck193" type="truck_truck" depart="373.52" departLane="best" from="524566662" to="61816318#1"/>
    <trip id="truck194" type="truck_truck" depart="375.45" departLane="best" from="-192105384#2" to="1061577694#1"/>
    <trip id="truck195" type="truck_truck" depart="377.39" departLane="best" from="-319055639#0" to="99978917"/>
    <trip id="truck196" type="truck_truck" depart="379.32" departLane="best" from="155900473" to="-141166607#0"/>
    <trip id="truck198" type="truck_truck" depart="383.19" departLane="best" from="254468111#1" to="96779084"/>
    <trip id="truck199" type="truck_truck" depart="385.13" departLane="best" from="89637284#1" to="27811156#1"/>
    <trip id="truck200" type="truck_truck" depart="387.06" departLane="best" from="425459416#1" to="158323735#1"/>
    <trip id="truck201" type="truck_truck" depart="389.00" departLane="best" from="775888149#1" to="223942192"/>
    <trip id="truck202" type="truck_truck" depart="390.93" departLane="best" from="89638687#1" to="524568471#4"/>
    <trip id="truck204" type="truck_truck" depart="394.81" departLane="best" from="-52458711" to="319125074#3"/>
    <trip id="truck205" type="truck_truck" depart="396.74" departLane="best" departSpeed="max" from="52502912#0" to="162311603"/>
    <trip id="truck206" type="truck_truck" depart="398.68" departLane="best" from="27796679#4" to="-854929433#0"/>
    <trip id="truck207" type="truck_truck" depart="400.61" departLane="best" from="-155900473" to="-89545832#1"/>
    <trip id="truck208" type="truck_truck" depart="402.55" departLane="best" from="-775888147#0" to="-91364630"/>
    <trip id="truck209" type="truck_truck" depart="404.48" departLane="best" from="162239103#1" to="-256938735#0"/>
    <trip id="truck210" type="truck_truck" depart="406.42" departLane="best" from="-425461020#1" to="423314370#2"/>
    <trip id="truck211" type="truck_truck" depart="408.35" departLane="best" from="423314370#0" to="-147606589#3"/>
    <trip id="truck212" type="truck_truck" depart="410.29" departLane="best" from="-99979578#0" to="223942066#0"/>
    <trip id="truck213" type="truck_truck" depart="412.22" departLane="best" departSpeed="max" from="-99979604" to="-423314370#0"/>
    <trip id="truck214" type="truck_truck" depart="414.16" departLane="best" departSpeed="max" from="-99979624" to="91364633#3"/>
    <trip id="truck215" type="truck_truck" depart="416.09" departLane="best" departSpeed="max" from="233257351" to="423314370#2"/>
    <trip id="truck216" type="truck_truck" depart="418.03" departLane="best" from="857565973" to="61816161#2"/>
    <trip id="truck217" type="truck_truck" depart="419.96" departLane="best" from="-96779084" to="-1044280141#0"/>
    <trip id="truck218" type="truck_truck" depart="421.90" departLane="best" from="-91828642#3" to="52502912#1"/>
    <trip id="truck219" type="truck_truck" depart="423.84" departLane="best" from="857565970#2" to="96779088#1"/>
    <trip id="truck220" type="truck_truck" depart="425.77" departLane="best" from="-99979605#1" to="52458554#0"/>
    <trip id="truck221" type="truck_truck" depart="427.71" departLane="best" from="162311604#2" to="27796679#3"/>
    <trip id="truck222" type="truck_truck" depart="429.64" departLane="best" departSpeed="max" from="-423287196#3" to="-524568465"/>
    <trip id="truck223" type="truck_truck" depart="431.58" departLane="best" from="1044280141#2" to="-1060254070#1"/>
    <trip id="truck224" type="truck_truck" depart="433.51" departLane="best" from="1061607198" to="-233257351"/>
    <trip id="truck225" type="truck_truck" depart="435.45" departLane="best" from="275970114#2" to="-1060254067#0"/>
    <trip id="truck226" type="truck_truck" depart="437.38" departLane="best" from="-1061607204" to="319677999#2"/>
    <trip id="truck227" type="truck_truck" depart="439.32" departLane="best" from="-237318475" to="142488977"/>
    <trip id="truck228" type="truck_truck" depart="441.25" departLane="best" from="-142741651#1" to="-99979556#3"/>
    <trip id="truck229" type="truck_truck" depart="443.19" departLane="best" from="-422206250" to="-91734407#1"/>
    <trip id="truck230" type="truck_truck" depart="445.12" departLane="best" from="52502392#0" to="-99979556#3"/>
    <trip id="truck231" type="truck_truck" depart="447.06" departLane="best" from="524568467#0" to="854929432#2"/>
    <trip id="truck232" type="truck_truck" depart="448.99" departLane="best" from="-52502912#2" to="-158323737"/>
    <trip id="truck233" type="truck_truck" depart="450.93" departLane="best" from="-1060254067#0" to="192105384#1"/>
    <trip id="truck234" type="truck_truck" depart="452.87" departLane="best" from="99979625" to="-949327407"/>
    <trip id="truck235" type="truck_truck" depart="454.80" departLane="best" from="309231778#4" to="61957183"/>
    <trip id="truck236" type="truck_truck" depart="456.74" departLane="best" from="309232093" to="52502912#2"/>
    <trip id="truck237" type="truck_truck" depart="458.67" departLane="best" from="949327406#0" to="-422206243#2"/>
    <trip id="truck238" type="truck_truck" depart="460.61" departLane="best" from="-1060254067#1" to="-27796679#1"/>
    <trip id="truck239" type="truck_truck" depart="462.54" departLane="best" from="-224217801#2" to="414745094#0"/>
    <trip id="truck240" type="truck_truck" depart="464.48" departLane="best" from="190247403#2" to="-478976485"/>
    <trip id="truck241" type="truck_truck" depart="466.41" departLane="best" from="422206250" to="61816161#4"/>
    <trip id="truck242" type="truck_truck" depart="468.35" departLane="best" from="444087520#0" to="-223942251#0"/>
    <trip id="truck243" type="truck_truck" depart="470.28" departLane="best" from="67008393" to="99979555#0"/>
    <trip id="truck244" type="truck_truck" depart="472.22" departLane="best" from="-192105384#4" to="-105830916#2"/>
    <trip id="truck245" type="truck_truck" depart="474.15" departLane="best" departSpeed="max" from="-89566371#4" to="422206222#3"/>
    <trip id="truck246" type="truck_truck" depart="476.09" departLane="best" departSpeed="max" from="96779088#0" to="100102162#2"/>
    <trip id="truck247" type="truck_truck" depart="478.02" departLane="best" from="423517904#1" to="-155900479#1"/>
    <trip id="truck248" type="truck_truck" depart="479.96" departLane="best" from="390566342" to="309231778#4"/>
    <trip id="truck249" type="truck_truck" depart="481.90" departLane="best" from="-165486156#3" to="61822411"/>
    <trip id="truck250" type="truck_truck" depart="483.83" departLane="best" from="854929433#1" to="27796679#0"/>
    <trip id="truck251" type="truck_truck" depart="485.77" departLane="best" departSpeed="max" from="-224217800" to="99979578#1"/>
    <trip id="truck252" type="truck_truck" depart="487.70" departLane="best" from="61812351" to="-94327820#4"/>