<?xml version="1.0" encoding="UTF-8"?>

<!-- generated on 2022-07-25 13:50:08 by Eclipse SUMO duarouter Version 1.13.0
<configuration xmlns:xsi="http://www.w3.org/2001/XMLSchema-instance" xsi:noNamespaceSchemaLocation="http://sumo.dlr.de/xsd/duarouterConfiguration.xsd">

    <input>
        <net-file value="F:\projects\streamlit\streamlit_book\sumo_demo1\2022-07-25-13-49-47\osm.net.xml"/>
        <route-files value="F:\projects\streamlit\streamlit_book\sumo_demo1\2022-07-25-13-49-47\osm.bicycle.trips.xml"/>
    </input>

    <output>
        <output-file value="F:\projects\streamlit\streamlit_book\sumo_demo1\2022-07-25-13-49-47\osm.bicycle.trips.xml.tmp"/>
        <write-trips value="true"/>
    </output>

    <time>
        <begin value="0"/>
        <end value="3600"/>
    </time>

    <report>
        <no-warnings value="true"/>
        <ignore-errors value="true"/>
        <no-step-log value="true"/>
    </report>

</configuration>
-->

<routes xmlns:xsi="http://www.w3.org/2001/XMLSchema-instance" xsi:noNamespaceSchemaLocation="http://sumo.dlr.de/xsd/routes_file.xsd">
    <vType id="bike_bicycle" vClass="bicycle"/>
    <trip id="bike1" type="bike_bicycle" depart="2.29" departLane="best" from="-436665906#0" to="-377250689#0"/>
    <trip id="bike2" type="bike_bicycle" depart="4.57" departLane="best" from="382972273" to="30685566#2"/>
    <trip id="bike3" type="bike_bicycle" depart="6.86" departLane="best" departSpeed="max" from="89637182#0" to="-156220848#0"/>
    <trip id="bike4" type="bike_bicycle" depart="9.14" departLane="best" from="-982030465#8" to="-137684671#3"/>
    <trip id="bike5" type="bike_bicycle" depart="11.43" departLane="best" from="-291319631#1" to="156066591#0"/>
    <trip id="bike6" type="bike_bicycle" depart="13.72" departLane="best" departSpeed="max" from="-1076564401#1" to="-27811140#0"/>
    <trip id="bike7" type="bike_bicycle" depart="16.00" departLane="best" from="237042939" to="156339450#9"/>
    <trip id="bike8" type="bike_bicycle" depart="18.29" departLane="best" from="-318198216#0" to="223942066#1"/>
    <trip id="bike9" type="bike_bicycle" depart="20.57" departLane="best" from="553681859#4" to="-1048015309"/>
    <trip id="bike10" type="bike_bicycle" depart="22.86" departLane="best" from="52502912#1" to="336014580"/>
    <trip id="bike11" type="bike_bicycle" depart="25.14" departLane="best" departSpeed="max" from="-854854177" to="-236946074#3"/>
    <trip id="bike12" type="bike_bicycle" depart="27.43" departLane="best" departSpeed="max" from="981890960" to="-89637244#1"/>
    <trip id="bike13" type="bike_bicycle" depart="29.72" departLane="best" from="-156220848#2" to="-158323735#3"/>
    <trip id="bike14" type="bike_bicycle" depart="32.00" departLane="best" from="826049216" to="233258650"/>
    <trip id="bike15" type="bike_bicycle" depart="34.29" departLane="best" departSpeed="max" from="553681859#0" to="422206222#3"/>
    <trip id="bike16" type="bike_bicycle" depart="36.57" departLane="best" from="156066609#3" to="99978663#3"/>
    <trip id="bike17" type="bike_bicycle" depart="38.86" departLane="best" from="-91205096" to="161318989#1"/>
    <trip id="bike18" type="bike_bicycle" depart="41.15" departLane="best" from="61879252#0" to="237022772#2"/>
    <trip id="bike19" type="bike_bicycle" depart="43.43" departLane="best" from="854780596#2" to="187953264#5"/>
    <trip id="bike20" type="bike_bicycle" depart="45.72" departLane="best" from="319055638#1" to="-155883037#2"/>
    <trip id="bike21" type="bike_bicycle" depart="48.00" departLane="best" departSpeed="max" from="-323619811" to="-684111938"/>
    <trip id="bike22" type="bike_bicycle" depart="50.29" departLane="best" from="-156085174#0" to="-414745094#1"/>
    <trip id="bike24" type="bike_bicycle" depart="54.86" departLane="best" from="237022770#3" to="-93690068#0"/>
    <trip id="bike25" type="bike_bicycle" depart="57.15" departLane="best" from="-89637250#0" to="-291319631#3"/>
    <trip id="bike26" type="bike_bicycle" depart="59.43" departLane="best" departSpeed="max" from="-424680545" to="94327820#0"/>
    <trip id="bike27" type="bike_bicycle" depart="61.72" departLane="best" from="237042932#2" to="236946071"/>
    <trip id="bike28" type="bike_bicycle" depart="64.01" departLane="best" from="-237022774" to="422206222#1"/>
    <trip id="bike29" type="bike_bicycle" depart="66.29" departLane="best" from="-237022770#1" to="-949327407"/>
    <trip id="bike30" type="bike_bicycle" depart="68.58" departLane="best" from="99979560#1" to="237316238#0"/>
    <trip id="bike31" type="bike_bicycle" depart="70.86" departLane="best" from="156220841#0" to="319055637#2"/>
    <trip id="bike32" type="bike_bicycle" depart="73.15" departLane="best" from="779254401" to="441145916#0"/>
    <trip id="bike33" type="bike_bicycle" depart="75.43" departLane="best" from="-332813232#0" to="-141166589#1"/>
    <trip id="bike34" type="bike_bicycle" depart="77.72" departLane="best" from="-684111942" to="-524572405#0"/>
    <trip id="bike36" type="bike_bicycle" depart="82.29" departLane="best" from="857726123#4" to="-854929432#4"/>
    <trip id="bike37" type="bike_bicycle" depart="84.58" departLane="best" from="237057065#2" to="-982030469#0"/>
    <trip id="bike38" type="bike_bicycle" depart="86.86" departLane="best" departSpeed="max" from="91364630" to="1075931143#1"/>
    <trip id="bike39" type="bike_bicycle" depart="89.15" departLane="best" from="-423517904#1" to="-424680651"/>
    <trip id="bike40" type="bike_bicycle" depart="91.44" departLane="best" from="156231213#0" to="-444087518"/>
    <trip id="bike41" type="bike_bicycle" depart="93.72" departLane="best" from="165397335#0" to="89637250#1"/>
    <trip id="bike42" type="bike_bicycle" depart="96.01" departLane="best" from="-94327820#2" to="-342654499"/>
    <trip id="bike43" type="bike_bicycle" depart="98.29" departLane="best" from="99979605#0" to="156066609#4"/>
    <trip id="bike44" type="bike_bicycle" depart="100.58" departLane="best" from="-156220841#3" to="-155900461#1"/>
    <trip id="bike45" type="bike_bicycle" depart="102.87" departLane="best" from="-162311599#0" to="237042935#0"/>
    <trip id="bike46" type="bike_bicycle" depart="105.15" departLane="best" from="479464934" to="-99979562#2"/>
    <trip id="bike47" type="bike_bicycle" depart="107.44" departLane="best" from="-156066591#2" to="-957457981#1"/>
    <trip id="bike48" type="bike_bicycle" depart="109.72" departLane="best" from="99979602#0" to="156210204#2"/>
    <trip id="bike49" type="bike_bicycle" depart="112.01" departLane="best" from="99978633#4" to="854929432#2"/>
    <trip id="bike50" type="bike_bicycle" depart="114.30" departLane="best" from="-1060254067#0" to="382844528#1"/>
    <trip id="bike51" type="bike_bicycle" depart="116.58" departLane="best" from="27796679#3" to="156220848#2"/>
    <trip id="bike52" type="bike_bicycle" depart="118.87" departLane="best" from="-424680543#0" to="237316238#1"/>
    <trip id="bike53" type="bike_bicycle" depart="121.15" departLane="best" from="-162311604#2" to="1056474963#0"/>
    <trip id="bike54" type="bike_bicycle" depart="123.44" departLane="best" from="-99979603" to="96779085#1"/>
    <trip id="bike55" type="bike_bicycle" depart="125.72" departLane="best" from="857726123#3" to="-478976485"/>
    <trip id="bike56" type="bike_bicycle" depart="128.01" departLane="best" from="141166607#2" to="-237063305#1"/>
    <trip id="bike57" type="bike_bicycle" depart="130.30" departLane="best" from="91364623#0" to="857726118"/>
    <trip id="bike58" type="bike_bicycle" depart="132.58" departLane="best" from="-524572405#4" to="237175532#0"/>
    <trip id="bike59" type="bike_bicycle" depart="134.87" departLane="best" from="192105380#1" to="-236946073#0"/>
    <trip id="bike60" type="bike_bicycle" depart="137.15" departLane="best" from="425461017" to="156231213#1"/>
    <trip id="bike61" type="bike_bicycle" depart="139.44" departLane="best" from="436666796#4" to="156210206#0"/>
    <trip id="bike62" type="bike_bicycle" depart="141.73" departLane="best" from="-100102162#1" to="-857726123#3"/>
    <trip id="bike63" type="bike_bicycle" depart="144.01" departLane="best" from="-1061607204" to="91828678#1"/>
    <trip id="bike64" type="bike_bicycle" depart="146.30" departLane="best" from="857726125#1" to="776728693#1"/>
    <trip id="bike65" type="bike_bicycle" depart="148.58" departLane="best" from="-61816318#1" to="-156066584#0"/>
    <trip id="bike66" type="bike_bicycle" depart="150.87" departLane="best" from="857726125#0" to="943472402"/>
    <trip id="bike67" type="bike_bicycle" depart="153.16" departLane="best" departSpeed="max" from="-156210204#3" to="155882977#0"/>
    <trip id="bike68" type="bike_bicycle" depart="155.44" departLane="best" from="-156085154#0" to="432974118#7"/>
    <trip id="bike69" type="bike_bicycle" depart="157.73" departLane="best" from="425461020#2" to="-191934370"/>
    <trip id="bike70" type="bike_bicycle" depart="160.01" departLane="best" from="1060254070#2" to="158323735#2"/>
    <trip id="bike71" type="bike_bicycle" depart="162.30" departLane="best" from="-423517904#2" to="857726123#0"/>
    <trip id="bike72" type="bike_bicycle" depart="164.59" departLane="best" from="-982030466#1" to="-319055637#0"/>
    <trip id="bike73" type="bike_bicycle" depart="166.87" departLane="best" from="156085154#0" to="422206222#3"/>
    <trip id="bike74" type="bike_bicycle" depart="169.16" departLane="best" from="-265041497" to="-854780596#3"/>
    <trip id="bike75" type="bike_bicycle" depart="171.44" departLane="best" from="99979576" to="256938736#0"/>
    <trip id="bike76" type="bike_bicycle" depart="173.73" departLane="best" from="-99978920#1" to="156085162#1"/>
    <trip id="bike77" type="bike_bicycle" depart="176.01" departLane="best" from="-187708733#3" to="-377250690"/>
    <trip id="bike78" type="bike_bicycle" depart="178.30" departLane="best" from="-854854150#1" to="192953070"/>
    <trip id="bike79" type="bike_bicycle" depart="180.59" departLane="best" departSpeed="max" from="-332813232#1" to="-352924004"/>
    <trip id="bike80" type="bike_bicycle" depart="182.87" departLane="best" departSpeed="max" from="-156085155#1" to="237042941#2"/>
    <trip id="bike81" type="bike_bicycle" depart="185.16" departLane="best" departSpeed="max" from="-330606923" to="89638687#3"/>
    <trip id="bike82" type="bike_bicycle" depart="187.44" departLane="best" from="854780595#7" to="-156085162#0"/>
    <trip id="bike83" type="bike_bicycle" depart="189.73" departLane="best" departSpeed="max" from="-375025773#1" to="27811156#0"/>
    <trip id="bike84" type="bike_bicycle" depart="192.02" departLane="best" from="-27811156#2" to="-192105384#2"/>
    <trip id="bike85" type="bike_bicycle" depart="194.30" departLane="best" from="94327820#0" to="187808010#0"/>
    <trip id="bike86" type="bike_bicycle" depart="196.59" departLane="best" from="1060254067#1" to="444087520#2"/>
    <trip id="bike87" type="bike_bicycle" depart="198.87" departLane="best" from="553681859#1" to="-265041450#1"/>
    <trip id="bike88" type="bike_bicycle" depart="201.16" departLane="best" from="-156339450#2" to="100945005"/>
    <trip id="bike89" type="bike_bicycle" depart="203.45" departLane="best" from="-982030467" to="137684671#3"/>
    <trip id="bike90" type="bike_bicycle" depart="205.73" departLane="best" from="377250692#1" to="27811740#1"/>
    <trip id="bike91" type="bike_bicycle" depart="208.02" departLane="best" from="99979555#1" to="-159796724"/>
    <trip id="bike92" type="bike_bicycle" depart="210.30" departLane="best" from="-943413918#3" to="-89637249#2"/>
    <trip id="bike93" type="bike_bicycle" depart="212.59" departLane="best" from="854780596#2" to="-425461020#2"/>
    <trip id="bike94" type="bike_bicycle" depart="214.88" departLane="best" from="-237175531#3" to="1061577701"/>
    <trip id="bike96" type="bike_bicycle" depart="219.45" departLane="best" from="-390566342" to="91828642#5"/>
    <trip id="bike97" type="bike_bicycle" depart="221.73" departLane="best" from="-99979556#1" to="854929432#3"/>
    <trip id="bike98" type="bike_bicycle" depart="224.02" departLane="best" from="156085186#0" to="-155900479#1"/>
    <trip id="bike99" type="bike_bicycle" depart="226.30" departLane="best" from="99979616" to="781272624#2"/>
    <trip id="bike100" type="bike_bicycle" depart="228.59" departLane="best" departSpeed="max" from="99978633#0" to="91828643#3"/>
    <trip id="bike101" type="bike_bicycle" depart="230.88" departLane="best" from="826049217#2" to="-237042930#0"/>
    <trip id="bike102" type="bike_bicycle" depart="233.16" departLane="best" from="106972917" to="-319055638#0"/>
    <trip id="bike103" type="bike_bicycle" depart="235.45" departLane="best" from="-94327820#5" to="-156066584#2"/>
    <trip id="bike104" type="bike_bicycle" depart="237.73" departLane="best" from="-91364623#0" to="99979559#1"/>
    <trip id="bike105" type="bike_bicycle" depart="240.02" departLane="best" from="-423517904#2" to="444087520#1"/>
    <trip id="bike106" type="bike_bicycle" depart="242.31" departLane="best" from="-99979605#0" to="-99979574#1"/>
    <trip id="bike107" type="bike_bicycle" depart="244.59" departLane="best" departSpeed="max" from="981890960" to="99979604"/>
    <trip id="bike108" type="bike_bicycle" depart="246.88" departLane="best" from="156210206#2" to="382844495#1"/>
    <trip id="bike109" type="bike_bicycle" depart="249.16" departLane="best" from="-236879445#1" to="-779254400"/>
    <trip id="bike110" type="bike_bicycle" depart="251.45" departLane="best" departSpeed="max" from="99978633#0" to="188614447#1"/>
    <trip id="bike111" type="bike_bicycle" depart="253.74" departLane="best" from="156085157#4" to="424680651"/>
    <trip id="bike112" type="bike_bicycle" depart="256.02" departLane="best" from="-156066573#2" to="192105379#1"/>
    <trip id="bike113" type="bike_bicycle" depart="258.31" departLane="best" from="142741651#1" to="854780595#2"/>
    <trip id="bike114" type="bike_bicycle" depart="260.59" departLane="best" from="-236946069#1" to="982030465#8"/>
    <trip id="bike115" type="bike_bicycle" depart="262.88" departLane="best" from="-156085174#1" to="-256938735#2"/>
    <trip id="bike116" type="bike_bicycle" depart="265.17" departLane="best" from="187814573#2" to="291319631#3"/>
    <trip id="bike117" type="bike_bicycle" depart="267.45" departLane="best" from="-360349951#0" to="-187953264#0"/>
    <trip id="bike118" type="bike_bicycle" depart="269.74" departLane="best" from="89566371#1" to="-424680651"/>
    <trip id="bike119" type="bike_bicycle" depart="272.02" departLane="best" from="187814573#1" to="237022773#2"/>
    <trip id="bike120" type="bike_bicycle" depart="274.31" departLane="best" from="-982030465#3" to="192105379#0"/>
    <trip id="bike121" type="bike_bicycle" depart="276.59" departLane="best" from="155900479#1" to="93690091#0"/>
    <trip id="bike122" type="bike_bicycle" depart="278.88" departLane="best" from="-275970114#0" to="377250693#1"/>
    <trip id="bike123" type="bike_bicycle" depart="281.17" departLane="best" from="-377250689#0" to="-982030469#1"/>
    <trip id="bike124" type="bike_bicycle" depart="283.45" departLane="best" from="261057632#0" to="-826049217#2"/>
    <trip id="bike125" type="bike_bicycle" depart="285.74" departLane="best" from="-74656360" to="425461017"/>
    <trip id="bike126" type="bike_bicycle" depart="288.02" departLane="best" from="-156085157#2" to="1075931142"/>
    <trip id="bike127" type="bike_bicycle" depart="290.31" departLane="best" from="99979605#1" to="99979604"/>
    <trip id="bike128" type="bike_bicycle" depart="292.60" departLane="best" from="-156085157#3" to="-319055637#2"/>
    <trip id="bike129" type="bike_bicycle" depart="294.88" departLane="best" from="-423517904#2" to="93690090#0"/>
    <trip id="bike130" type="bike_bicycle" depart="297.17" departLane="best" from="863056911" to="88778549#1"/>
    <trip id="bike131" type="bike_bicycle" depart="299.45" departLane="best" departSpeed="max" from="-89637249#3" to="-237022770#3"/>
    <trip id="bike133" type="bike_bicycle" depart="304.03" departLane="best" from="192105384#4" to="99979561#0"/>
    <trip id="bike134" type="bike_bicycle" depart="306.31" departLane="best" from="237057062" to="-1056474963#0"/>
    <trip id="bike135" type="bike_bicycle" depart="308.60" departLane="best" from="61814416#3" to="-826049217#1"/>
    <trip id="bike137" type="bike_bicycle" depart="313.17" departLane="best" from="-192105379#0" to="-187708733#4"/>
    <trip id="bike138" type="bike_bicycle" depart="315.46" departLane="best" from="-161318989#2" to="161318989#3"/>
    <trip id="bike139" type="bike_bicycle" depart="317.74" departLane="best" from="-425461020#5" to="236879445#1"/>
    <trip id="bike140" type="bike_bicycle" depart="320.03" departLane="best" from="352924004" to="-27811156#1"/>
    <trip id="bike141" type="bike_bicycle" depart="322.31" departLane="best" from="237022770#0" to="-479464934"/>
    <trip id="bike142" type="bike_bicycle" depart="324.60" departLane="best" from="1075931142" to="89638687#3"/>
    <trip id="bike143" type="bike_bicycle" depart="326.88" departLane="best" from="792726357#0" to="-156339450#5"/>
    <trip id="bike144" type="bike_bicycle" depart="329.17" departLane="best" from="-982030467" to="-577437514"/>
    <trip id="bike145" type="bike_bicycle" depart="331.46" departLane="best" from="-1015404008" to="439496046"/>
    <trip id="bike146" type="bike_bicycle" depart="333.74" departLane="best" from="237022771#2" to="-441145918#2"/>
    <trip id="bike147" type="bike_bicycle" depart="336.03" departLane="best" from="414745094#0" to="161318989#0"/>
    <trip id="bike148" type="bike_bicycle" depart="338.31" departLane="best" from="-982279510" to="-105830599#0"/>
    <trip id="bike149" type="bike_bicycle" depart="340.60" departLane="best" from="-156085162#4" to="89545832#1"/>
    <trip id="bike150" type="bike_bicycle" depart="342.89" departLane="best" from="89637326#1" to="156343489#0"/>
    <trip id="bike152" type="bike_bicycle" depart="347.46" departLane="best" from="-224217801#2" to="-191934370"/>
    <trip id="bike153" type="bike_bicycle" depart="349.74" departLane="best" from="-61822411" to="89637250#3"/>
    <trip id="bike154" type="bike_bicycle" depart="352.03" departLane="best" from="524568471#0" to="854929432#1"/>
    <trip id="bike155" type="bike_bicycle" depart="354.32" departLane="best" from="89637250#3" to="-318193070"/>
    <trip id="bike156" type="bike_bicycle" depart="356.60" departLane="best" from="-390566342" to="-162311601"/>
    <trip id="bike157" type="bike_bicycle" depart="358.89" departLane="best" from="441144077#0" to="89562363#1"/>
    <trip id="bike158" type="bike_bicycle" depart="361.17" departLane="best" from="-943416396#1" to="237022775#0"/>
    <trip id="bike159" type="bike_bicycle" depart="363.46" departLane="best" from="-236879445#1" to="92361436#0"/>
    <trip id="bike160" type="bike_bicycle" depart="365.74" departLane="best" from="854929432#1" to="99978917"/>
    <trip id="bike161" type="bike_bicycle" depart="368.03" departLane="best" departSpeed="max" from="577606479" to="89545382#1"/>
    <trip id="bike163" type="bike_bicycle" depart="372.60" departLane="best" from="-854780595#10" to="930991464"/>
    <trip id="bike164" type="bike_bicycle" depart="374.89" departLane="best" from="52502392#0" to="854929433#2"/>
    <trip id="bike165" type="bike_bicycle" depart="377.17" departLane="best" departSpeed="max" from="577606479" to="-524568471#2"/>
    <trip id="bike166" type="bike_bicycle" depart="379.46" departLane="best" from="441145918#2" to="-165397335#0"/>
    <trip id="bike167" type="bike_bicycle" depart="381.75" departLane="best" from="857565973" to="854854150#3"/>
    <trip id="bike168" type="bike_bicycle" depart="384.03" departLane="best" from="-319055637#1" to="61879252#0"/>
    <trip id="bike169" type="bike_bicycle" depart="386.32" departLane="best" from="100944617" to="-854780594#6"/>
    <trip id="bike170" type="bike_bicycle" depart="388.60" departLane="best" from="524568467#4" to="-382844195"/>
    <trip id="bike172" type="bike_bicycle" depart="393.18" departLane="best" from="-854780594#2" to="854929433#3"/>
    <trip id="bike174" type="bike_bicycle" depart="397.75" departLane="best" from="237022773#2" to="-99978633#0"/>
    <trip id="bike175" type="bike_bicycle" depart="400.03" departLane="best" from="99979310#1" to="156220848#1"/>
    <trip id="bike176" type="bike_bicycle" depart="402.32" departLane="best" from="943413918#1" to="-187708733#4"/>
    <trip id="bike177" type="bike_bicycle" depart="404.61" departLane="best" from="99978633#3" to="-237063305#1"/>
    <trip id="bike178" type="bike_bicycle" depart="406.89" departLane="best" from="982030466#0" to="-524568465"/>
    <trip id="bike179" type="bike_bicycle" depart="409.18" departLane="best" from="-161318989#6" to="105242464"/>
    <trip id="bike180" type="bike_bicycle" depart="411.46" departLane="best" from="377250692#0" to="-854929432#2"/>
    <trip id="bike181" type="bike_bicycle" depart="413.75" departLane="best" departSpeed="max" from="191934370" to="156066609#8"/>
    <trip id="bike182" type="bike_bicycle" depart="416.03" departLane="best" from="-91734407#2" to="187953264#4"/>
    <trip id="bike183" type="bike_bicycle" depart="418.32" departLane="best" from="-422206243#0" to="363607526"/>
    <trip id="bike184" type="bike_bicycle" depart="420.61" departLane="best" from="-1008856810" to="91828643#2"/>
    <trip id="bike185" type="bike_bicycle" depart="422.89" departLane="best" from="156066609#7" to="382844495#3"/>
    <trip id="bike186" type="bike_bicycle" depart="425.18" departLane="best" from="422206222#0" to="27811156#4"/>
    <trip id="bike187" type="bike_bicycle" depart="427.46" departLane="best" departSpeed="max" from="-89566371#4" to="-156085157#3"/>
    <trip id="bike188" type="bike_bicycle" depart="429.75" departLane="best" from="255219177" to="-88778552#1"/>
    <trip id="bike189" type="bike_bicycle" depart="432.04" departLane="best" from="-684111938" to="854780594#2"/>
    <trip id="bike190" type="bike_bicycle" depart="434.32" departLane="best" from="360349951#1" to="-854780594#0"/>
    <trip id="bike191" type="bike_bicycle" depart="436.61" departLane="best" from="-61857817#0" to="-99978914#1"/>
    <trip id="bike192" type="bike_bicycle" depart="438.89" departLane="best" from="-943413918#1" to="-775888153"/>
    <trip id="bike193" type="bike_bicycle" depart="441.18" departLane="best" from="-187814573#2" to="-99979561#1"/>
    <trip id="bike194" type="bike_bicycle" depart="443.47" departLane="best" from="943413918#4" to="309231778#1"/>
    <trip id="bike195" type="bike_bicycle" depart="445.75" departLane="best" from="89637284#1" to="237022771#2"/>
    <trip id="bike196" type="bike_bicycle" depart="448.04" departLane="best" from="-52502392#1" to="158298805#2"/>
    <trip id="bike197" type="bike_bicycle" depart="450.32" departLane="best" from="-100102162#0" to="-62352731#0"/>
    <trip id="bike198" type="bike_bicycle" depart="452.61" departLane="best" from="-99978633#4" to="188614447#2"/>
    <trip id="bike199" type="bike_bicycle" depart="454.90" departLane="best" from="237057065#1" to="137679760#1"/>
    <trip id="bike200" type="bike_bicycle" depart="457.18" departLane="best" from="-99979555#1" to="-319055638#0"/>
    <trip id="bike201" type="bike_bicycle" depart="459.47" departLane="best" from="1060254067#2" to="89637282#2"/>
    <trip id="bike202" type="bike_bicycle" depart="461.75" departLane="best" from="524568471#0" to="-237042932#1"/>
    <trip id="bike203" type="bike_bicycle" depart="464.04" departLane="best" from="-156210204#2" to="156085157#1"/>
    <trip id="bike204" type="bike_bicycle" depart="466.32" departLane="best" from="236946074#1" to="-89637182#1"/>
    <trip id="bike205" type="bike_bicycle" depart="468.61" departLane="best" from="61816161#0" to="425459418"/>
    <trip id="bike206" type="bike_bicycle" depart="470.90" departLane="best" from="261057632#2" to="-377250690"/>
    <trip id="bike208" type="bike_bicycle" depart="475.47" departLane="best" from="-382844195" to="142741651#2"/>
    <trip id="bike209" type="bike_bicycle" depart="477.75" departLane="best" from="826049219" to="-156085162#3"/>
    <trip id="bike210" type="bike_bicycle" depart="480.04" departLane="best" from="-96779084" to="237042939"/>
    <trip id="bike211" type="bike_bicycle" depart="482.33" departLane="best" from="-256938731" to="332813232#0"/>
    <trip id="bike212" type="bike_bicycle" depart="484.61" departLane="best" from="137684671#0" to="-423517904#2"/>
    <trip id="bike213" type="bike_bicycle" depart="486.90" departLane="best" from="237063305#2" to="-1044280141#1"/>
    <trip id="bike214" type="bike_bicycle" depart="489.18" departLane="best" from="423314370#0" to="436666796#4"/>
    <trip id="bike215" type="bike_bicycle" depart="491.47" departLane="best" from="-161318989#1" to="-99979603"/>
    <trip id="bike216" type="bike_bicycle" depart="493.76" departLane="best" from="-237042930#3" to="982030465#3"/>
    <trip id="bike217" type="bike_bicycle" depart="496.04" departLane="best" from="155900456#2" to="-155900479#0"/>
    <trip id="bike218" type="bike_bicycle" depart="498.33" departLane="best" from="-390566340#2" to="854780594#2"/>
    <trip id="bike219" type="bike_bicycle" depart="500.61" departLane="best" departSpeed="max" from="-99979624" to="553681859#3"/>
    <trip id="bike220" type="bike_bicycle" depart="502.90" departLane="best" from="256938735#5" to="99979561#1"/>
    <trip id="bike221" type="bike_bicycle" depart="505.19" departLane="best" from="187814573#2" to="957457980#0"/>
    <trip id="bike222" type="bike_bicycle" depart="507.47" departLane="best" from="89566371#3" to="237022770#1"/>
    <trip id="bike223" type="bike_bicycle" depart="509.76" departLane="best" from="360349951#0" to="156066584#4"/>
    <trip id="bike224" type="bike_bicycle" depart="512.04" departLane="best" from="61879252#2" to="158298805#2"/>
    <trip id="bike225" type="bike_bicycle" depart="514.33" departLane="best" from="89637249#2" to="423517904#2"/>
    <trip id="bike226" type="bike_bicycle" depart="516.61" departLane="best" from="1060254070#1" to="-441145916#0"/>
    <trip id="bike227" type="bike_bicycle" depart="518.90" departLane="best" departSpeed="max" from="-382844528#3" to="237175531#1"/>
    <trip id="bike228" type="bike_bicycle" depart="521.19" departLane="best" from="425461020#2" to="156085165#1"/>
    <trip id="bike229" type="bike_bicycle" depart="523.47" departLane="best" departSpeed="max" from="233257351" to="-52502912#0"/>
    <trip id="bike230" type="bike_bicycle" depart="525.76" departLane="best" departSpeed="max" from="-156085165#1" to="-61857817#0"/>
    <trip id="bike231" type="bike_bicycle" depart="528.04" departLane="best" from="-425461020#4" to="-857565972#1"/>
    <trip id="bike232" type="bike_bicycle" depart="530.33" departLane="best" from="156085155#0" to="-223957412"/>
    <trip id="bike234" type="bike_bicycle" depart="534.90" departLane="best" departSpeed="max" from="319125074#0" to="-156066609#3"/>
    <trip id="bike235" type="bike_bicycle" depart="537.19" departLane="best" from="-943417135#1" to="156339450#5"/>
    <trip id="bike236" type="bike_bicycle" depart="539.47" departLane="best" from="-96779085#1" to="-27811740#0"/>
    <trip id="bike237" type="bike_bicycle" depart="541.76" departLane="best" from="-982030465#5" to="89638687#2"/>
    <trip id="bike238" type="bike_bicycle" depart="544.05" departLane="best" from="162311606#4" to="330606923"/>
    <trip id="bike239" type="bike_bicycle" depart="546.33" departLane="best" from="854780595#0" to="436665907#4"/>
    <trip id="bike240" type="bike_bicycle" depart="548.62" departLane="best" from="-91364623#2" to="-1044280141#2"/>
    <trip id="bike241" type="bike_bicycle" depart="550.90" departLane="best" from="-857726123#0" to="425461019#0"/>
    <trip id="bike242" type="bike_bicycle" depart="553.19" departLane="best" from="854780594#2" to="96779085#0"/>
    <trip id="bike243" type="bike_bicycle" depart="555.48" departLane="best" from="-982030465#3" to="424680547#1"/>
    <trip id="bike244" type="bike_bicycle" depart="557.76" departLane="best" from="156085162#5" to="233258650"/>
    <trip id="bike245" type="bike_bicycle" depart="560.05" departLane="best" from="-318198216#0" to="-342654499"/>
    <trip id="bike246" type="bike_bicycle" depart="562.33" departLane="best" from="-99978916#0" to="-137684671#2"/>
    <trip id="bike247" type="bike_bicycle" depart="564.62" departLane="best" from="-854780596#1" to="309231778#4"/>
    <trip id="bike248" type="bike_bicycle" depart="566.90" departLane="best" from="-943413919#1" to="-237022775#1"/>
    <trip id="bike249" type="bike_bicycle" depart="569.19" departLane="best" departSpeed="max" from="1056474964" to="-191934370"/>
    <trip id="bike250" type="bike_bicycle" depart="571.48" departLane="best" from="224950863#1" to="-137679760#0"/>
    <trip id="bike251" type="bike_bicycle" depart="573.76" departLane="best" departSpeed="max" from="-930991464" to="165397335#2"/>
    <trip id="bike252" type="bike_bicycle" depart="576.05" departLane="best" departSpeed="max" from="-1076564401#1" to="237318476"/>
    <trip id="bike253" type="bike_bicycle" depart="578.33" departLane="best" from="-192105380#1" to="1076564397#1"/>
    <trip id="bike254" type="bike_bicycle" depart="580.62" departLane="best" from="-155900461#4" to="-949327406#0"/>
    <trip id="bike255" type="bike_bicycle" depart="582.91" departLane="best" from="-27811151#1" to="-857726125#2"/>
    <trip id="bike258" type="bike_bicycle" depart="589.76" departLane="best" departSpeed="max" from="-414745094#2" to="-156210204#2"/>
    <trip id="bike259" type="bike_bicycle" depart="592.05" departLane="best" from="-1061607204" to="156231213#1"/>
    <trip id="bike260" type="bike_bicycle" depart="594.34" departLane="best" from="99979625" to="-91364623#1"/>
    <trip id="bike261" type="bike_bicycle" depart="596.62" departLane="best" from="237042941#0" to="441145919#1"/>