<?xml version="1.0" encoding="UTF-8"?>

<!-- generated on 2022-07-25 13:50:10 by Eclipse SUMO duarouter Version 1.13.0
<configuration xmlns:xsi="http://www.w3.org/2001/XMLSchema-instance" xsi:noNamespaceSchemaLocation="http://sumo.dlr.de/xsd/duarouterConfiguration.xsd">

    <input>
        <net-file value="F:\projects\streamlit\streamlit_book\sumo_demo1\2022-07-25-13-49-47\osm.net.xml"/>
        <route-files value="F:\projects\streamlit\streamlit_book\sumo_demo1\2022-07-25-13-49-47\osm.pedestrian.trips.xml"/>
    </input>

    <output>
        <output-file value="F:\projects\streamlit\streamlit_book\sumo_demo1\2022-07-25-13-49-47\osm.pedestrian.rou.xml"/>
        <alternatives-output value="F:\projects\streamlit\streamlit_book\sumo_demo1\2022-07-25-13-49-47\osm.pedestrian.rou.alt.xml"/>
    </output>

    <time>
        <begin value="0"/>
        <end value="3600"/>
    </time>

    <report>
        <no-warnings value="true"/>
        <ignore-errors value="true"/>
        <no-step-log value="true"/>
    </report>

</configuration>
-->

<routes xmlns:xsi="http://www.w3.org/2001/XMLSchema-instance" xsi:noNamespaceSchemaLocation="http://sumo.dlr.de/xsd/routes_file.xsd">
    <vType id="ped_pedestrian" vClass="pedestrian"/>
    <person id="ped2" type="ped_pedestrian" depart="5.90">
        <walk edges="156085175#2 156085175#1 156085175#0 156217231#0 -156066573#1"/>
    </person>
    <person id="ped3" type="ped_pedestrian" depart="8.85">
        <walk edges="-854780595#7 -854780595#8 -854780595#9 854780595#10 -854780594#2 -854780594#1 -854780594#0 188614442 188614439#0 188614443#1 188614440 -96779088#0 188614447#2 188614441#1 191934378#2 -96779085#1 -191927293#0 -156085173 187814573#2 -156085172#0 -156085162#5 156343485 156343491#1 156343491#0 156343492#1 156343492#2 -187953264#2 -187953264#3 -187953264#4 187953264#5"/>
    </person>
    <person id="ped4" type="ped_pedestrian" depart="11.80">
        <walk edges="858601980 854854168#1 -854780594#3 -854780594#2 -854780594#1 -854780594#0 188614442 188614439#0 188614443#1 188614440 -96779088#0 188614447#2 188614447#1 188614447#0 -1044280141#2"/>
    </person>
    <person id="ped6" type="ped_pedestrian" depart="17.71">
        <walk edges="-187953264#5 -187953264#4 -187953264#3 -187953264#2 156343492#2 156343488#0 156343487 156343491#1 156343485 -156085162#5 -156085172#0 187814573#2 -156085173 -191927293#0 779252390#2 -190247402#1 -191934370"/>
    </person>
    <person id="ped8" type="ped_pedestrian" depart="23.61">
        <walk edges="192109155#2 191934365#1 191934365#2 779252391#0 779252391#1 -91828642#0 -155904418 -155904419 -156339450#4 156087238#2 -187953264#5 -187953264#6 -187953264#7 -99978633#3 156085189#2 156085189#1 156085189#0 -156085186#0 99978636#0"/>
    </person>
    <person id="ped13" type="ped_pedestrian" depart="38.36">
        <walk edges="-187708729 -156066584#3 -156066584#2 -156066584#1 -156066584#0 -156066591#1 -156066591#0 -156220841#0 -88778549#1 -88778549#0 -99978636#0 -99978636#1 -156085157#3 -156085157#2 -156085165#0 -156085174#0 -99978663#2 -99978663#3 -99978663#4 -156085172#2 -156085172#1 -156085172#0 187814573#2 -156085173 -191927293#0 -96779085#1 -96779085#0 188614447#0 1044280141#2 94327820#0 -94327820#1 -857726123#0 857726123#1 -857726125#0 -857726125#1 -857726126 -857726123#4"/>
    </person>
    <person id="ped18" type="ped_pedestrian" depart="53.12">
        <walk edges="-857565974 -99979560#1 -99979560#2 -91828642#7 -91828642#6 -91828642#5 -91828642#4 -91828642#3 -91828642#2 -91828642#1 -91828642#0 -155904418 -155904419 -156339450#4 156087238#2 -187953264#5 -187953264#6 -187953264#7 -99978633#3 156085189#2 156085189#1 156085189#0 -156085186#0 -99978636#0 -88778549#0 -88778549#1 -156220841#0 -156220841#1 -156220841#2 -156220841#3 -156066572#2 156085170#1 156563750 156085175#3 -156066573#5"/>
    </person>
    <person id="ped20" type="ped_pedestrian" depart="59.02">
        <walk edges="88779389#4 88779389#3 88779389#2 88779389#1 88779389#0 88779377 88779378#0 88779378#1 88779378#2 88779378#3 88779378#4 156085188#3 156085188#2 156085188#1 156085188#0 -156066591#0 -156220841#0 -88778549#1 -88778549#0 -99978636#0 -156085186#0 156085189#0 156085189#1 156085189#2 -99978633#3 -187953264#7 -187953264#6 -187953264#5 156087238#2 -156339450#4 -155904419 -155904418 -91828642#0 -91828642#1 -91828642#2 -91828642#3 -91828642#4 -91828642#5 -91828642#6 -91828642#7 -99979560#2 -857565972#0 -857565972#1 -99979562#0 -99979559#1"/>
    </person>
    <person id="ped22" type="ped_pedestrian" depart="64.92">
        <walk edges="94327820#4 -94327820#3 -94327820#2 -94327820#1 94327820#0 1044280141#2 188614447#0 -96779085#0 -96779085#1 -191927293#0 -156085173 187814573#2 -156085172#0 -156085172#1 -156085172#2 -99978663#4 -99978663#3 -99978663#2 -156085174#0 -156085165#0 -156085157#2 -156085157#3 -99978636#1 -99978636#0 -88778549#0 -88778549#1 -156220841#0 -156220848#2 187900723 156220849#2"/>
    </person>
    <person id="ped26" type="ped_pedestrian" depart="76.72">
        <walk edges="156066609#0 -156066609#1 -156066609#2 156066578#1 156066583 156066577 -156220841#4 -156220841#3 -156220841#2 -156220841#1 -156220841#0 -88778549#1 -88778549#0 -99978636#0 -99978636#1 -156085157#3 -156085157#2 -156085165#0 -156085174#0 -99978663#2 -99978663#3 -99978663#4 -156085172#2 -156085172#1 -156085172#0 187814573#2 -156085173 -191927293#0 -96779085#1 191934378#2 188614441#1 188614447#2 -96779088#0 188614440 188614443#1 188614439#0 188614442 -854780594#0 -854780594#1 -854780594#2 854780595#10 -854780595#9 -854780595#8"/>
    </person>
    <person id="ped28" type="ped_pedestrian" depart="82.63">
        <walk edges="-187953264#2 -187953264#3 -187953264#4 -187953264#5 -187953264#6 -187953264#7 -156085152 -156085157#2"/>
    </person>
    <person id="ped31" type="ped_pedestrian" depart="91.48">
        <walk edges="99979562#2 -857565970#2 -857565970#1 -857565973 -857565972#0 -99979560#2 -91828642#7 -91828642#6 -91828642#5 -91828642#4 -91828642#3 -91828642#2 -91828642#1 779252391#1 192105379#1"/>
    </person>
    <person id="ped32" type="ped_pedestrian" depart="94.43">
        <walk edges="99978633#2 -99978633#3 156085189#2 156085189#1 156085189#0 -156085186#0 -99978636#0 88778549#0"/>
    </person>
    <person id="ped36" type="ped_pedestrian" depart="106.23">
        <walk edges="156220841#1 -156220841#0 -88778549#1 -88778549#0 -99978636#0 -99978636#1 -156085157#3 -156085157#2 -156085165#0 -156085174#0 -99978663#2 -99978663#3 -99978663#4 -156085172#2 -156085172#1 -156085172#0 187814573#2 -156085173 -191927293#0 -96779085#1 191934378#2 191934378#3 96779088#2"/>
    </person>
    <person id="ped37" type="ped_pedestrian" depart="109.18">
        <walk edges="88779389#3 88779389#2 88779389#1 88779389#0 88779377 88779378#0 88779378#1 88779378#2 88779378#3 88779378#4 156085188#3 156085188#2 156085188#1 156085188#0 -156066591#0 -156220841#0 -88778549#1 -88778549#0 -99978636#0 -99978636#1 -156085157#3 -156085157#2 -156085165#0 -156085174#0 -99978663#2 -99978663#3 -99978663#4 -156085172#2 -156085172#1 -156085172#0 187814573#2 -156085173 -191927293#0 -96779085#1 -96779085#0 188614447#0 1044280141#2 94327820#0 -94327820#1 -94327820#2 -94327820#3 94327820#4 -94327820#5"/>
    </person>
    <person id="ped38" type="ped_pedestrian" depart="112.14">
        <walk edges="94327820#0 1044280141#2 188614447#0 -96779085#0 -96779085#1 -191927293#0 -156085173 187814573#2 -156085172#0 -156085172#1 -156085172#2 -99978663#4 -99978663#3 -99978663#2 -156085174#0 -156085165#0 -156085157#2 -156085157#3 -99978636#1 -99978636#0 -88778549#0 -88778549#1 -156220841#0 -156220841#1 -156220841#2 -156220841#3 -156220841#4 156066577 156066583 156066578#1 -156066609#3 -156066609#4 156217229 88779379"/>
    </person>
    <person id="ped39" type="ped_pedestrian" depart="115.09">
        <walk edges="854857366#0 -854780595#4 854854161 854854160#1 854854160#0 854854163#0 854854158 -854780594#6 -854780594#5 -854780594#4 -854780594#3 -854780594#2 -854780594#1 -854780594#0 188614442 188614439#0 188614443#1 188614440 -96779088#0 188614447#3 -99979310#1 192109155#0 192109155#1 192109155#2 192109155#3 192105380#1"/>
    </person>
    <person id="ped40" type="ped_pedestrian" depart="118.04">
        <walk edges="-100102162#0 100102162#1"/>
    </person>
    <person id="ped43" type="ped_pedestrian" depart="126.89">
        <walk edges="-99979310#1 192109155#0 192109155#1 192109154#1 779252391#0 779252391#1 -91828642#0 -155904418 -155904419 -156339450#4 156087238#2 -187953264#5 -187953264#6 -187953264#7 -99978633#3 156085189#2 156085189#1 156085189#0 -156085186#0"/>
    </person>
    <person id="ped44" type="ped_pedestrian" depart="129.84">
        <walk edges="-187808010#0 88779382#0 88779382#1 625067282 -224950863#6 156217240#0 156217240#1 156217239#1 -156066609#4 156217229 187804259#0"/>
    </person>
    <person id="ped45" type="ped_pedestrian" depart="132.79">
        <walk edges="-156220848#1 -156220848#2 -156220841#0 -88778549#1 -88778549#0 -99978636#0 -99978636#1 -156085157#3 -156085157#2 -156085165#0 -156085174#0 -99978663#2 -99978663#3 -99978663#4 -156085172#2 -156085172#1 -156085172#0 187814573#2 -156085173 -191927293#0 -96779085#1 191934378#2 188614441#1 188614447#2 -96779088#0 188614440 188614443#1 188614439#0 188614442 -854780594#0 -854780594#1 -854780594#2 -854780594#3 -854780594#4 -854780594#5 -854780594#6 854854154#1 854854154#0"/>
    </person>
    <person id="ped49" type="ped_pedestrian" depart="144.60">
        <walk edges="156085175#4 156563750 156085170#1 -156066572#2 -156220841#3 -156220841#2 -156220841#1 -156220841#0 -88778549#1 -88778549#0 -99978636#0 -99978636#1 -156085157#3 -156085157#2 -156085165#0 -156085174#0 -99978663#2 -99978663#3 -99978663#4 -156085172#2 -156085172#1 -156085172#0 187814573#2 -156085173 -191927293#0 -96779085#1 191934378#2 188614441#1 188614447#2 -96779088#0 188614440 188614443#1 188614439#0 188614442 -854780594#0 -854780594#1 -854780594#2"/>
    </person>
    <person id="ped62" type="ped_pedestrian" depart="182.96">
        <walk edges="156343489#2 187954200 -156085162#1 -156339450#7 -187814573#0 -187814573#1 -156085173 -191927293#0 -96779085#1 191934378#2 188614441#1 188614447#2 -96779088#0 188614440 188614443#1 188614439#0 188614442 -854780594#0 -854780594#1 -854780594#2 -854780594#3 -854780594#4 -854780594#5 -854780594#6 -854780594#8 855952289 854857368#3 854857368#4 854857368#5"/>
    </person>
    <person id="ped63" type="ped_pedestrian" depart="185.91">
        <walk edges="-191939406 -156085172#1 -156085172#2 -99978663#4 -99978663#3 -99978663#2 -156085174#0 -156085165#0 -156085157#2 -156085157#3 -99978636#1 -99978636#0 -88778549#0 -88778549#1 -156220841#0 -156066591#0 156085188#0 156085188#1 156085188#2 156085188#3"/>
    </person>
    <person id="ped64" type="ped_pedestrian" depart="188.86">
        <walk edges="156085176 -156220841#2 -156220841#1 -156220841#0 -88778549#1 -88778549#0 -99978636#0 -156085186#0 156085189#0 156085189#1 156085189#2 -99978633#3 -187953264#7 -187953264#6 -187953264#5 -187953264#4 -187953264#3 -187953264#2 -187953264#1 -156085162#2 156339450#7"/>
    </person>
    <person id="ped67" type="ped_pedestrian" depart="197.71">
        <walk edges="88778549#1 -88778549#0 -99978636#0 -156085186#0 156085189#0 156085189#1 156085189#2 -99978633#3 -187953264#7 -187953264#6 -187953264#5 156087238#2 -156339450#4 -155904419 -155904418 -91828642#0"/>
    </person>
    <person id="ped70" type="ped_pedestrian" depart="206.57">
        <walk edges="156217229 -156066609#4 -156066609#3 156066578#1 156066583 156066577 -156220841#4 -156220841#3 -156220841#2 -156220841#1 -156220841#0 88778549#1"/>
    </person>
    <person id="ped73" type="ped_pedestrian" depart="215.42">
        <walk edges="187804259#0 156217229 -156066609#4 -156066609#3 156066578#1 156066583 156066577 -156220841#4 -156220841#3 -156220841#2 -156220841#1 -156220841#0 -88778549#1 -88778549#0 -99978636#0 -99978636#1 -156085157#3 -156085157#2 -156085165#0 -156085174#0 -99978663#2 -99978663#3 -99978663#4 -156085172#2 -156085172#1 -156085172#0 187814573#2 -156085173 -191927293#0 -96779085#1 191934378#2 188614441#1 188614447#2 -96779088#0 188614440 188614443#1 188614439#0 188614442 -854780594#0 -854780594#1 -854780594#2 -854780594#3 -854780594#4 -854780594#5 -854780594#6"/>
    </person>
    <person id="ped74" type="ped_pedestrian" depart="218.37">
        <walk edges="156066609#3 156066578#1 156066583 156066577 -156220841#4 -156220841#3 -156220841#2 -156220841#1 -156220841#0 -88778549#1 -88778549#0 -99978636#0 -156085186#0 -156085186#1"/>
    </person>
    <person id="ped76" type="ped_pedestrian" depart="224.27">
        <walk edges="156220841#3 -156066572#2 156085170#1 156563750 156085175#4"/>
    </person>
    <person id="ped79" type="ped_pedestrian" depart="233.12">
        <walk edges="224848903#1 156217239#0 156217239#1 -156066609#3 156066578#1 156066583 156066577 -156220841#4 -156220841#3 -156220841#2 -156220841#1 -156220841#0 -88778549#1 -88778549#0 -99978636#0 -99978636#1 -156085157#3 -156085157#2 -156085165#0 -156085174#0 -99978663#2 -99978663#3 -99978663#4 -156085172#2 -156085172#1 -156085172#0 187814573#2 -156085173 -191927293#0 -96779085#1 191934378#2 188614441#1 188614447#2 -96779088#0 188614440 188614443#1 188614439#0 188614442 -854780594#0 -854780594#1 -854780594#2 -854780594#3 -854780594#4 -854780594#5 -854780594#6 854854158 854854163#1 854854159 -854780595#1 854780595#2"/>
    </person>
    <person id="ped86" type="ped_pedestrian" depart="253.78">
        <walk edges="916927129#3 916927130#0 916927130#1 -916927131#1"/>
    </person>
    <person id="ped90" type="ped_pedestrian" depart="265.58">
        <walk edges="-88778552#0 -156066584#4 156066584#3"/>
    </person>
    <person id="ped91" type="ped_pedestrian" depart="268.54">
        <walk edges="-99979560#1 -99979560#2 -91828642#7 -91828642#6 -91828642#5 -91828642#4 -192105384#3 192105380#1 192109155#3 192109155#2 192109155#1 192109155#0 -99979310#1 188614447#3 -96779088#0 188614440 188614443#1 188614439#0 188614442 -854780594#0 -854780594#1 -854780594#2 -854780594#3 -854780594#4 -854780594#5 -854780594#6 854780596#1"/>
    </person>
    <person id="ped92" type="ped_pedestrian" depart="271.49">
        <walk edges="-156339450#1 -99978633#1 -99978633#2 -99978633#3 156085189#2 156085189#1 156085189#0 -156085186#0 -99978636#0 -88778549#0 -88778549#1 -156220841#0 -156220848#2 187900723 156220849#1"/>
    </person>
    <person id="ped94" type="ped_pedestrian" depart="277.39">
        <walk edges="-156339450#2 -156339450#3 -156339450#4 -156339450#5 -156339450#6 -156339450#7 -187814573#0 -187814573#1 -156085173 -191927293#0 -96779085#1 191934378#2 188614441#1 188614447#2 -96779088#0 188614440 188614443#1 188614439#0 188614442 -854780594#0 -854780594#1 -854780594#2 -854780594#3 -854780594#4 -854780594#5"/>
    </person>
    <person id="ped99" type="ped_pedestrian" depart="292.14">
        <walk edges="382844528#1 -342654499 -93690091#1 93690090#1 27811201 -155900474 -105830599#1 -105830599#0"/>
    </person>
    <person id="ped101" type="ped_pedestrian" depart="298.04">
        <walk edges="-237042930#2 -237042930#3 -982279510 -237022772#0 -236946074#3 -236946074#2 -236946074#1 -237063305#0 -236946069#2"/>
    </person>
    <person id="ped112" type="ped_pedestrian" depart="330.50">
        <walk edges="91828678#1 192105384#4 -91828642#3 -91828642#2 -91828642#1 -91828642#0 -155904418 -155904419 -156339450#4 156087238#2 -187953264#5 -187953264#6 -187953264#7 -99978633#3 156085189#2 156085189#1 156085189#0 -156085186#0 -99978636#0 -88778549#0 -88778549#1 -156220841#0 -156220841#1 -156220841#2 -156220841#3 -156220841#4 156066577 156066583 156066578#1 -156066609#3 156217239#1 156217239#0 224848903#2 224848903#3 156217241 224950863#2"/>
    </person>
    <person id="ped114" type="ped_pedestrian" depart="336.41">
        <walk edges="-237063305#1 237022770#5 -237022770#3 -237022770#2 -237022770#1 -237022770#0 237022771#2 -237022772#2 -237022772#1"/>
    </person>
    <person id="ped116" type="ped_pedestrian" depart="342.31">
        <walk edges="857565970#1 -857565973 -857565972#0 -99979560#2 -91828642#7 -91828642#6 -91828642#5 -91828642#4 -91828642#3 -91828642#2 -91828642#1 -91828642#0 -155904418 -155904419 -156339450#4 156087238#2 -187953264#5 -187953264#6 -187953264#7 -99978633#3 156085189#2 156085189#1 156085189#0 -156085186#0 -99978636#0 88778549#0"/>
    </person>
    <person id="ped117" type="ped_pedestrian" depart="345.26">
        <walk edges="91828642#4 -192105384#3 192105380#1 192109155#3 192109155#2 192109155#1 192109155#0 -99979310#1 188614447#3 -96779088#0 188614440 188614443#1 188614439#0 188614442 -854780594#0 -854780594#1 -854780594#2 -854780594#3 -854780594#4 -854780594#5 -854780594#6 -854780594#8 -854780594#11"/>
    </person>
    <person id="ped120" type="ped_pedestrian" depart="354.11">
        <walk edges="88779376#2 88779376#1 155900459#1 88779389#0 88779377 88779378#0 88779378#1 88779378#2 88779378#3 88779378#4 156085188#3 156085188#2 156085188#1 156085188#0 -156066591#0 -156220841#0 -88778549#1 -88778549#0 -99978636#0 -99978636#1 -156085157#0 -156085155#0 99978663#0"/>
    </person>
    <person id="ped121" type="ped_pedestrian" depart="357.06">
        <walk edges="857726123#0 -94327820#1 94327820#0 1044280141#2 188614447#0 -96779085#0 -96779085#1 -191927293#0 -156085173 187814573#2 -156085172#0 -156085172#1 -156085172#2 -99978663#4 -99978663#3 -99978663#2 -156085174#0 -156085165#0 -156085157#2 -156085157#3 -99978636#1 -99978636#0 -88778549#0 -88778549#1 -156220841#0 -156066591#0 156085188#0 156085188#1 156085188#2 156085188#3 88779378#4 88779378#3 88779378#2 88779378#1 88779378#0 88779377 88779389#0 155900459#1 88779376#1"/>
    </person>
    <person id="ped123" type="ped_pedestrian" depart="362.97">
        <walk edges="854857371 854854161 854854160#1 854854160#0 854854163#0 854854158 -854780594#6 -854780594#5 -854780594#4 -854780594#3 -854780594#2 -854780594#1 -854780594#0 188614442 188614439#0 188614443#1 188614440 -96779088#0 188614447#2 188614441#1 191934378#2 -96779085#1 -191927293#0 -156085173 187814573#2 -156085172#0 -156085172#1 -156085172#2 -99978663#4 -99978663#3 -99978663#2 -156085174#0 -156085165#0 -156085157#2 -156085157#3 -99978636#1 -99978636#0 -88778549#0 -88778549#1 -156220841#0 -156220841#1 -156220841#2 -156220841#3 -156220841#4 156066577 156066583 156066578#1 156066578#2 156217240#0 -224950863#6 -224950863#5 -224950863#4"/>
    </person>
    <person id="ped126" type="ped_pedestrian" depart="371.82">
        <walk edges="857565970#0 -857565973 -857565972#1"/>
    </person>
    <person id="ped131" type="ped_pedestrian" depart="386.57">
        <walk edges="-224950863#4 -224950863#5 -224950863#6 156217240#0 156066578#2 156066578#1 156066583 156066577 -156220841#4 -156220841#3 -156220841#2 -156220841#1 -156220841#0 -88778549#1 -88778549#0 -99978636#0 -156085186#0 156085189#0 156085189#1 156085189#2 -99978633#3 -187953264#7 -187953264#6 -187953264#5 156087238#2"/>
    </person>
    <person id="ped138" type="ped_pedestrian" depart="407.23">
        <walk edges="-99979553#0 -99979553#1 -99979556#3 99979560#0 -99979560#1 -99979560#2 -91828642#7 -91828642#6 -91828642#5 -91828642#4 -91828642#3 -91828642#2 -91828642#1 -91828642#0 -155904418 -155904419 -156339450#4 156087238#2 -187953264#5 -187953264#6 -187953264#7 -156085152 156085157#3"/>
    </person>
    <person id="ped139" type="ped_pedestrian" depart="410.18">
        <walk edges="156066609#6 156217231#1 156217231#0 -156066573#2 -156220841#4 -156220841#3 -156220841#2 -156220841#1 -156220841#0 -88778549#1 -88778549#0 -99978636#0 -156085186#0 156085189#0 156085189#1 156085189#2 -99978633#3 -99978633#2 -99978633#1"/>
    </person>
    <person id="ped142" type="ped_pedestrian" depart="419.03">
        <walk edges="-99978663#1 -156085155#0 -156085157#0 -99978636#1 -99978636#0 -88778549#0 -88778549#1 -156220841#0 -156220841#1 -156220841#2 -156220841#3 -156220841#4 156066577 156066583 156066578#1 156066578#2 156217240#0 224950863#6"/>
    </person>
    <person id="ped148" type="ped_pedestrian" depart="436.74">
        <walk edges="-187804261#0 -156066609#7 -156066609#6 -156066609#5 -156066609#4 156217239#1 156217240#1 156217240#0 -224950863#6 625067282 88779382#1 88779382#0 187808010#1 189100260"/>
    </person>
    <person id="ped149" type="ped_pedestrian" depart="439.69">
        <walk edges="363607515#1 363607515#3 -319055637#2 795150941 -360349951#0 360349941#0 100944896#0 100944896#1 100944896#2 1050092962#0 1050092962#1 1050092962#2"/>
    </person>
    <person id="ped157" type="ped_pedestrian" depart="463.30">
        <walk edges="854780595#9 -854780595#8 854780595#7 854854148#0 854854164"/>
    </person>
    <person id="ped158" type="ped_pedestrian" depart="466.25">
        <walk edges="-224950863#1 156217241 224848903#3 224848903#2 156217239#0 156217239#1 -156066609#3 156066578#1 156066583 156066577 -156220841#4 -156220841#3 -156220841#2 -156220841#1 -156220841#0 -88778549#1 -88778549#0 -99978636#0 -156085186#0 156085186#1"/>
    </person>
    <person id="ped166" type="ped_pedestrian" depart="489.86">
        <walk edges="91828642#1 779252391#1 779252391#0 192109154#1 192109154#0 191934378#4 -96779088#1 -96779088#0 188614440 188614443#1 188614439#0 188614442 -854780594#0 -854780594#1 -854780594#2 -854780594#3 854780594#4"/>
    </person>
    <person id="ped173" type="ped_pedestrian" depart="510.51">
        <walk edges="156085157#1 -156085157#0 -99978636#1 -99978636#0 -88778549#0 -88778549#1 -156220841#0 -156220841#1 -156220841#2 -156220841#3 -156220841#4 156066577 156066583 156066578#1 -156066609#3 156217239#1 156217239#0 224848903#2"/>
    </person>
    <person id="ped177" type="ped_pedestrian" depart="522.32">
        <walk edges="155900459#1 88779389#0 88779377 88779378#0 88779378#1 88779378#2 88779378#3 88779378#4 156085188#3 156085188#2 156085188#1 156085188#0 -156066591#0 -156220841#0 -88778549#1 -88778549#0 -99978636#0 -99978636#1 -156085157#3 -156085157#2 -156085165#0 -156085174#0 -99978663#2 -99978663#3 -99978663#4 -156085172#2 -156085172#1 -156085172#0 187814573#2 -156085173 -191927293#0 -96779085#1 -96779085#0 188614447#0 -1044280141#1"/>
    </person>
    <person id="ped180" type="ped_pedestrian" depart="531.17">
        <walk edges="156085174#2 -187953264#6 -187953264#5 -187953264#4 -187953264#3 -187953264#2 156343492#2 156343488#0 156343487 156343491#1 156343485 -156085162#5 -156085172#0 187814573#2 -156085173 -191927293#0 -96779085#1 191934378#2 188614441#1 188614447#2 -96779088#0 188614440 188614443#1 188614439#0 188614442 -854780594#0 -854780594#1 -854780594#2 854780595#10"/>
    </person>
    <person id="ped181" type="ped_pedestrian" depart="534.12">
        <walk edges="-854780596#1 854854148#2 854854148#1 854854148#0 854780595#7 -854780595#8"/>
    </person>
    <person id="ped190" type="ped_pedestrian" depart="560.68">
        <walk edges="-91828642#7 -91828642#6 -91828642#5 -91828642#4 -91828642#3 -91828642#2 -91828642#1 -91828642#0 -155904418 -155904419 -156339450#4 156087238#2 -187953264#5 -187953264#6 -187953264#7 -99978633#3 156085189#2 156085189#1 156085189#0 -156085186#0 -99978636#0 -88778549#0 -88778549#1 -156220841#0 -156066591#0 -156066591#1 -156066591#2 187708733#4 -187708733#3 -187708733#2"/>
    </person>
    <person id="ped200" type="ped_pedestrian" depart="590.19">
        <walk edges="-224950863#4 -224950863#5 -224950863#6 156217240#0 156066578#2 156066578#1 156066583 156066577 -156220841#4 -156220841#3 -156220841#2 -156220841#1 -156220841#0 -88778549#1 -88778549#0 -99978636#0 -156085186#0 156085189#0 156085189#1 156085189#2 -99978633#3 -187953264#7 -187953264#6 -187953264#5 156087238#2 -156339450#4 -155904419"/>
    </person>
    <person id="ped203" type="ped_pedestrian" depart="599.04">
        <walk edges="632893317#4 88779379 156217229 -156066609#4 -156066609#3 156066578#1 156066583 156066577 -156220841#4 -156220841#3 -156220841#2 -156220841#1 -156220841#0 -88778549#1 -88778549#0 -99978636#0 -156085186#0 156085189#0 156085189#1 156085189#2 -99978633#3 -187953264#7 -187953264#6 -187953264#5 -187953264#4 -187953264#3 -187953264#2 -187953264#1 -156085162#2 -156339450#7"/>
    </person>
    <person id="ped205" type="ped_pedestrian" depart="604.94">
        <walk edges="-192105384#3 192105380#1 192109155#3 192109155#2 192109155#1 192109155#0 -99979310#1 188614447#3 -96779088#0 188614440 188614443#1 188614439#0 188614442 -854780594#0 -854780594#1 -854780594#2 -854780594#3 -854780594#4 -854780594#5 854854167#1"/>
    </person>
    <person id="ped212" type="ped_pedestrian" depart="625.60">
        <walk edges="192109155#5 -91828642#2 -91828642#1 -91828642#0 -155904418 -155904419 -156339450#4 156087238#2 -187953264#5 -187953264#6 -187953264#7 -99978633#3 156085189#2 156085189#1 156085189#0 -156085186#0 -99978636#0 -88778549#0 -88778549#1 -156220841#0 -156066591#0 -156066591#1 -156066591#2 187708733#4 -187708733#3 187708733#2"/>
    </person>
    <person id="ped220" type="ped_pedestrian" depart="649.21">
        <walk edges="-854780594#3 -854780594#2 -854780594#1 -854780594#0 188614442 188614439#0 188614443#1 188614440 -96779088#0 188614447#3 -99979310#1 192109155#0 192109155#1 192109155#2 192109155#3 192105380#1 -192105384#3 -91828642#4 -91828642#5 -91828642#6 -91828642#7 -99979560#2 857565972#0"/>
    </person>
    <person id="ped222" type="ped_pedestrian" depart="655.11">
        <walk edges="187808006#1 187808006#0 88779378#3 88779378#4 156085188#3 156085188#2 156085188#1 156085188#0 -156066591#0 -156220841#0 -88778549#1 -88778549#0 -99978636#0 -99978636#1 -156085157#3 -156085157#2 -156085165#0 -156085174#0 -99978663#2 -99978663#3 -99978663#4 -156085172#2 -156085172#1 -156085172#0 187814573#2 -156085173 -191927293#0 -96779085#1 191934378#2 188614441#1 188614447#2 -96779088#0 188614440 188614443#1 188614439#0 188614442 -854780594#0 -854780594#1 -854780594#2 -854780594#3 -854780594#4 -854780594#5 -854780594#6 -854780594#8 -854780594#11 854854151#0 854854151#1 854854151#2"/>
    </person>
    <person id="ped224" type="ped_pedestrian" depart="661.01">
        <walk edges="-187953264#5 -187953264#4 -187953264#3 -187953264#2 156343492#2 156343488#0 156343487 156343491#1 156343485 -156085162#5 -156085172#0 187814573#2 -156085173 -191927293#0 -96779085#1 191934378#2 188614441#1 188614447#2 -96779088#0 188614440 188614443#1 188614439#0 188614442 -854780594#0 -854780594#1 -854780594#2 -854780594#3 -854780594#4 -854780594#5 -854780594#6 -854780594#8 -854780594#11 -854780594#12 -854780596#3"/>
    </person>
    <person id="ped225" type="ped_pedestrian" depart="663.96">
        <walk edges="524566662 99978920#1 -99978920#0"/>
    </person>
    <person id="ped227" type="ped_pedestrian" depart="669.86">
        <walk edges="192105382 -192105384#2 -192105384#3 -91828642#3 -91828642#2 -91828642#1 -91828642#0 -155904418 -155904419 -156339450#4 156087238#2 -187953264#5 -187953264#6 -187953264#7 -99978633#3 156085189#2 156085189#1 156085189#0 156085186#1"/>
    </person>
    <person id="ped232" type="ped_pedestrian" depart="684.62">
        <walk edges="192109155#1 192109155#0 -99979310#1 188614447#3 -96779088#0 188614440 188614443#1 188614439#0 188614442 -854780594#0 -854780594#1 -854780594#2 -854780594#3 -854780594#4 -854780594#5 -854780594#6 854854154#1 854854156#0"/>
    </person>
    <person id="ped233" type="ped_pedestrian" depart="687.57">
        <walk edges="187708733#3 187708733#4 -156066591#2 -156066591#1 -156066591#0 -156220841#0 -88778549#1 -88778549#0 -99978636#0 -156085186#0 156085189#0 156085189#1 156085189#2 -99978633#3 -187953264#7 -187953264#6 -187953264#5 156087238#2 -156339450#4 -155904419 -155904418 -91828642#0 779252391#2"/>
    </person>
    <person id="ped234" type="ped_pedestrian" depart="690.52">
        <walk edges="99978663#1 -99978663#2 -99978663#3 -99978663#4 -156085172#2 -156085172#1 -156085172#0 187814573#2 -156085173 -191927293#0 -96779085#1 191934378#2 191934378#3 191934378#4 191934378#5"/>
    </person>
    <person id="ped240" type="ped_pedestrian" depart="708.22">
        <walk edges="88779378#4 88779378#3 88779378#2 -156066573#1 156217231#0 156085175#0 156066578#1 -156066609#2 -156066609#1 187808010#0"/>
    </person>
    <person id="ped246" type="ped_pedestrian" depart="725.93">
        <walk edges="854857377 -854780594#13 -854780594#12 -854780594#11 -854780594#8 -854780594#6 -854780594#5 -854780594#4 -854780594#3 -854780594#2 -854780594#1 -854780594#0 188614442 188614439#0 188614443#1 188614440 -96779088#0 188614447#3 -99979310#1 192109155#0 192109155#1 192109155#2 192109155#3 192105380#1 -192105384#3 -91828642#4 -91828642#5 -91828642#6 -91828642#7 -99979560#2 -857565972#0 -857565973 -857565970#1 -857565970#2"/>
    </person>
    <person id="ped247" type="ped_pedestrian" depart="728.88">
        <walk edges="191934378#1 192089744 779252390#2 -191927293#0 -156085173 187814573#2 -156085172#0 -156085172#1 -156085172#2 -99978663#4 -99978663#3 -99978663#2 -156085174#0 -156085165#0 -156085157#2 -156085157#3 -99978636#1 -99978636#0 -88778549#0 -88778549#1 -156220841#0 -156220841#1 -156220841#2 -156220841#3 -156220841#4 156066577 156066583 156066578#1 -156066609#3 156217239#1"/>
    </person>
    <person id="ped250" type="ped_pedestrian" depart="737.73">
        <walk edges="424680652 779263299#2 779263299#1 280731705 776728684#3 100944896#1 100944896#0 360349941#0 -360349951#0 795150941 -319055637#2 363607515#2 -319055638#0 -319055638#1"/>
    </person>
    <person id="ped254" type="ped_pedestrian" depart="749.54">
        <walk edges="156085186#1 -156085186#0 -99978636#0 -88778549#0 -88778549#1 -156220841#0 -156066591#0 156085188#0 156085188#1 156085188#2 156085188#3 88779378#4 88779378#3 88779378#2 88779378#1 88779378#0 88779377 88779389#0 155900459#1 88779376#1 88779376#2 88779376#3 156217230 632893316#2 224950863#0"/>
    </person>
    <person id="ped259" type="ped_pedestrian" depart="764.29">