<?xml version="1.0" encoding="UTF-8"?>

<!-- generated on 2022-07-25 13:49:58 by Eclipse SUMO polyconvert Version 1.13.0
<configuration xmlns:xsi="http://www.w3.org/2001/XMLSchema-instance" xsi:noNamespaceSchemaLocation="http://sumo.dlr.de/xsd/polyconvertConfiguration.xsd">

    <input>
        <net-file value="osm.net.xml"/>
        <osm-files value="osm_bbox.osm.xml.gz"/>
        <osm.keep-full-type value="true"/>
        <type-file value="F:\Sumo\data\typemap\osmPolyconvert.typ.xml"/>
    </input>

    <output>
        <output-file value="osm.poly.xml"/>
    </output>

    <processing>
        <poi-layer-offset value="5"/>
    </processing>

    <report>
        <verbose value="true"/>
    </report>

</configuration>
-->

<additional xmlns:xsi="http://www.w3.org/2001/XMLSchema-instance" xsi:noNamespaceSchemaLocation="http://sumo.dlr.de/xsd/additional_file.xsd">
    <location netOffset="-659044.72,-3527591.56" convBoundary="-0.00,-0.00,29093.14,31903.72" origBoundary="118.686649,31.871005,118.994148,32.160705" projParameter="+proj=utm +zone=50 +ellps=WGS84 +datum=WGS84 +units=m +no_defs"/>

    <poly id="100944618" type="landuse.construction" color="194,194,130" fill="1" layer="-3.00" shape="8637.796842,19017.043357 8605.608351,18931.334174 8594.593670,18905.546990 8585.778203,18886.749205 8582.386314,18877.610994 8583.011144,18870.058120 8583.637214,18863.004302 8590.393085,18852.535865 8651.176507,18823.271947 8682.864941,18896.319723 8687.759812,18908.255122 8760.468382,18879.287896 8773.494215,18907.969527 8799.171007,18954.813669 8772.816364,18968.075489 8742.777158,18974.500931 8637.796842,19017.043357"/>
    <poly id="100944800" type="amenity.parking" color="184,184,179" fill="1" layer="-1.00" shape="9048.591118,19388.605072 9019.474375,19317.383711 9103.139718,19284.873565 9122.375904,19344.088351 9090.680239,19352.492625 9097.818684,19367.514950 9048.591118,19388.605072"/>
    <poly id="100949347" type="building.yes" color="255,230,230" fill="1" layer="-1.00" shape="8527.384869,20849.803622 8547.381298,20841.549171 8558.947844,20845.132921 8566.538341,20859.630057 8562.906717,20873.144085 8543.725983,20880.613465 8532.705035,20880.032923 8522.415469,20859.103752 8527.384869,20849.803622"/>
    <poly id="100950656" type="natural.wood" color="140,196,107" fill="1" layer="-4.00" shape="8564.526402,20347.053720 8568.471270,20320.248314 8565.329943,20318.876962 8562.064299,20314.154482 8559.953973,20307.521404 8528.377414,20303.730545 8522.641397,20341.252403 8564.526402,20347.053720"/>
    <poly id="100950657" type="building.yes" color="255,230,230" fill="1" layer="-1.00" shape="8562.535889,20283.765418 8561.357700,20297.974100 8529.836770,20295.392928 8531.005473,20281.184089 8562.535889,20283.765418"/>
    <poly id="100950659" type="building.yes" color="255,230,230" fill="1" layer="-1.00" shape="8526.361689,20382.644837 8527.818829,20372.144695 8552.093032,20375.460568 8550.635867,20385.960707 8526.361689,20382.644837"/>
    <poly id="100950660" type="amenity.fountain" color="237,199,199" fill="1" layer="-1.00" shape="8568.945796,20314.367498 8567.303217,20312.599395 8566.167076,20310.473664 8565.601279,20308.124433 8565.640857,20305.718622 8566.283440,20303.400360 8567.479631,20301.301909 8569.170041,20299.588638 8571.240092,20298.336291 8573.565397,20297.642627 8575.975272,20297.549198 8578.346971,20298.053984 8580.510906,20299.132016 8582.447096,20300.849504 8583.856320,20303.024088 8584.628011,20305.487605 8584.708255,20308.072822 8584.081450,20310.579868 8582.816611,20312.832443 8580.982565,20314.665335 8578.732573,20315.947989 8576.210086,20316.571870 8573.613932,20316.506978 8571.132946,20315.756422 8568.945796,20314.367498"/>
    <poly id="100950660#1" type="landuse.basin" color="194,194,130" fill="1" layer="-3.00" shape="8568.945796,20314.367498 8567.303217,20312.599395 8566.167076,20310.473664 8565.601279,20308.124433 8565.640857,20305.718622 8566.283440,20303.400360 8567.479631,20301.301909 8569.170041,20299.588638 8571.240092,20298.336291 8573.565397,20297.642627 8575.975272,20297.549198 8578.346971,20298.053984 8580.510906,20299.132016 8582.447096,20300.849504 8583.856320,20303.024088 8584.628011,20305.487605 8584.708255,20308.072822 8584.081450,20310.579868 8582.816611,20312.832443 8580.982565,20314.665335 8578.732573,20315.947989 8576.210086,20316.571870 8573.613932,20316.506978 8571.132946,20315.756422 8568.945796,20314.367498"/>
    <poly id="100950661" type="natural.wood" color="140,196,107" fill="1" layer="-4.00" shape="8579.324974,20321.846358 8584.895903,20319.054698 8588.582514,20315.411400 8590.337552,20311.492348 8621.419904,20316.617121 8618.203421,20335.882425 8615.453521,20353.769196 8609.075352,20363.145920 8594.828651,20361.126051 8592.286673,20369.822898 8589.641418,20373.316983 8587.900658,20390.144664 8568.560740,20387.142764 8579.324974,20321.846358"/>
    <poly id="100950662" type="amenity.community_centre" color="237,199,199" fill="1" layer="-1.00" shape="8543.678873,20365.651953 8558.077191,20367.640975 8559.619566,20356.554485 8545.221233,20354.565461 8543.678873,20365.651953"/>
    <poly id="100950662#1" type="building.yes" color="255,230,230" fill="1" layer="-1.00" shape="8543.678873,20365.651953 8558.077191,20367.640975 8559.619566,20356.554485 8545.221233,20354.565461 8543.678873,20365.651953"/>
    <poly id="100950663" type="building.dormitory" color="255,230,230" fill="1" layer="-1.00" shape="8637.504849,20387.135019 8638.965936,20376.402067 8639.470283,20372.728591 8679.670688,20378.158886 8677.705197,20392.565308 8637.504849,20387.135019"/>
    <poly id="100950704" type="building.yes" color="255,230,230" fill="1" layer="-1.00" shape="8476.071052,20523.322119 8490.593314,20525.801044 8488.483719,20538.075899 8506.207923,20541.106539 8503.775168,20555.228055 8471.528581,20549.729586 8476.071052,20523.322119"/>
    <poly id="100950789" type="historic.memorial" color="128,255,128" fill="1" layer="-1.00" shape="8509.325803,20702.379666 8510.236591,20694.088471 8522.963152,20695.484401 8522.052536,20703.764508 8509.325803,20702.379666"/>
    <poly id="100954797" type="amenity.restaurant" color="237,199,199" fill="1" layer="-1.00" shape="8529.556303,20131.560474 8556.887898,20135.647437 8554.904853,20148.833716 8527.573293,20144.746757 8529.556303,20131.560474"/>
    <poly id="100954797#1" type="building.yes" color="255,230,230" fill="1" layer="-1.00" shape="8529.556303,20131.560474 8556.887898,20135.647437 8554.904853,20148.833716 8527.573293,20144.746757 8529.556303,20131.560474"/>
    <poly id="100954798" type="building.yes" color="255,230,230" fill="1" layer="-1.00" shape="8527.702158,20193.188595 8529.962951,20193.547378 8545.599654,20196.055772 8550.908207,20163.284367 8529.581961,20159.861756 8528.194665,20168.411262 8540.430860,20170.375772 8538.201578,20184.179026 8529.394086,20182.769943 8527.702158,20193.188595"/>
    <poly id="100954800" type="building.yes" color="255,230,230" fill="1" layer="-1.00" shape="8491.666821,20255.485556 8493.627714,20243.640755 8515.367049,20247.203171 8514.726910,20251.096210 8520.293608,20252.008397 8521.520481,20244.598489 8526.823354,20245.473071 8525.742887,20252.020392 8535.133714,20253.561056 8533.675950,20262.375555 8491.666821,20255.485556"/>
    <poly id="100954800#1" type="tourism.hostel" color="207,245,201" fill="1" layer="-2.00" shape="8491.666821,20255.485556 8493.627714,20243.640755 8515.367049,20247.203171 8514.726910,20251.096210 8520.293608,20252.008397 8521.520481,20244.598489 8526.823354,20245.473071 8525.742887,20252.020392 8535.133714,20253.561056 8533.675950,20262.375555 8491.666821,20255.485556"/>
    <poly id="101178673" type="building.yes" color="255,230,230" fill="1" layer="-1.00" shape="8590.979265,20382.698691 8591.498276,20376.984953 8602.079061,20377.946423 8601.550784,20383.648919 8590.979265,20382.698691"/>
    <poly id="1013274620" type="building.yes" color="255,230,230" fill="1" layer="-1.00" shape="9348.989009,19116.021706 9345.782764,19079.683195 9370.053036,19076.557654 9372.438120,19113.426005 9348.989009,19116.021706"/>
    <poly id="1015404006" type="building.yes" color="255,230,230" fill="1" layer="-1.00" shape="10247.272289,19381.985488 10247.401943,19363.944578 10290.106643,19363.833376 10290.134679,19382.043257 10247.272289,19381.985488"/>
    <poly id="1015404007" type="building.yes" color="255,230,230" fill="1" layer="-1.00" shape="10101.903931,19509.665911 10100.447426,19497.831134 10142.050076,19494.085790 10142.850882,19505.588087 10101.903931,19509.665911"/>
    <poly id="1015404010" type="building.yes" color="255,230,230" fill="1" layer="-1.00" shape="10710.680216,19400.960813 10710.833117,19391.781001 10750.388002,19391.940873 10750.071766,19401.284312 10710.680216,19400.960813"/>
    <poly id="1015404011" type="building.yes" color="255,230,230" fill="1" layer="-1.00" shape="10712.798490,19412.152441 10712.962474,19402.307425 10754.006328,19402.669550 10753.666978,19412.833251 10712.798490,19412.152441"/>
    <poly id="1015404012" type="building.yes" color="255,230,230" fill="1" layer="-1.00" shape="10759.557371,19415.881279 10759.349309,19398.322645 10771.043428,19398.850183 10771.081500,19416.405985 10759.557371,19415.881279"/>
    <poly id="1015404013" type="building.yes" color="255,230,230" fill="1" layer="-1.00" shape="10655.645691,19409.226648 10688.781968,19409.124153 10689.137687,19397.973734 10655.506257,19397.746381 10655.645691,19409.226648"/>
    <poly id="1015404014" type="building.yes" color="255,230,230" fill="1" layer="-1.00" shape="10691.048274,19401.787177 10708.339395,19402.563115 10708.179548,19392.879053 10690.870843,19392.590774 10691.048274,19401.787177"/>
    <poly id="1015404015" type="building.yes" color="255,230,230" fill="1" layer="-1.00" shape="10779.092104,19440.160760 10792.304350,19438.573288 10791.329878,19427.899740 10777.957275,19429.473452 10779.092104,19440.160760"/>
    <poly id="1015404016" type="building.yes" color="255,230,230" fill="1" layer="-1.00" shape="10761.768349,19441.347050 10771.007621,19440.680348 10769.635021,19424.421996 10761.050058,19424.933254 10761.768349,19441.347050"/>
    <poly id="1015404017" type="building.yes" color="255,230,230" fill="1" layer="-1.00" shape="10772.001885,19440.530568 10777.724008,19440.071424 10776.980993,19430.244561 10771.192581,19430.713691 10772.001885,19440.530568"/>
    <poly id="1015404018" type="building.yes" color="255,230,230" fill="1" layer="-1.00" shape="10711.321615,19431.069230 10725.844607,19430.745562 10725.140878,19418.557232 10710.857792,19418.086431 10711.321615,19431.069230"/>
    <poly id="1015404019" type="building.yes" color="255,230,230" fill="1" layer="-1.00" shape="10663.118973,19377.911498 10689.194350,19378.123929 10688.838082,19365.486709 10663.219622,19365.060093 10663.118973,19377.911498"/>
    <poly id="1015404020" type="building.yes" color="255,230,230" fill="1" layer="-1.00" shape="10630.046720,19382.672863 10644.441478,19382.679636 10644.584166,19374.109595 10630.078113,19373.978983 10630.046720,19382.672863"/>
    <poly id="1015404021" type="building.yes" color="255,230,230" fill="1" layer="-1.00" shape="10630.719805,19369.476117 10643.977563,19369.696845 10644.229873,19361.350426 10630.524384,19360.789551 10630.719805,19369.476117"/>
    <poly id="1015404022" type="building.yes" color="255,230,230" fill="1" layer="-1.00" shape="10657.783175,19269.508565 10703.677743,19270.727510 10703.271495,19258.255806 10657.972884,19256.980250 10657.783175,19269.508565"/>
    <poly id="1015404023" type="building.yes" color="255,230,230" fill="1" layer="-1.00" shape="10660.063022,19295.962430 10705.534966,19297.595766 10706.183167,19284.764570 10660.368977,19282.693033 10660.063022,19295.962430"/>
    <poly id="1015404024" type="building.yes" color="255,230,230" fill="1" layer="-1.00" shape="10659.534621,19322.591333 10705.268790,19323.785449 10705.677913,19309.996547 10659.317681,19308.958356 10659.534621,19322.591333"/>
    <poly id="1015404025" type="building.yes" color="255,230,230" fill="1" layer="-1.00" shape="10692.782688,19367.404400 10723.745750,19366.788956 10723.442819,19357.756808 10692.946096,19357.592645 10692.782688,19367.404400"/>
    <poly id="1015404026" type="building.yes" color="255,230,230" fill="1" layer="-1.00" shape="10603.496577,19106.250221 10604.953027,19093.088697 10623.918192,19094.901496 10622.455812,19108.417793 10603.496577,19106.250221"/>
    <poly id="1015404028" type="building.yes" color="255,230,230" fill="1" layer="-1.00" shape="10640.350084,19410.568904 10640.248452,19403.624997 10642.286254,19403.769823 10641.817287,19393.359781 10649.595008,19393.112226 10650.059877,19410.575314 10640.350084,19410.568904"/>
    <poly id="1015404029" type="building.yes" color="255,230,230" fill="1" layer="-1.00" shape="10706.092390,19494.937043 10704.133771,19480.398953 10754.082596,19472.359181 10757.190966,19487.615099 10706.092390,19494.937043"/>
    <poly id="1015404030" type="building.yes" color="255,230,230" fill="1" layer="-1.00" shape="10701.523460,19466.992259 10700.073124,19453.693605 10736.282414,19448.851659 10737.477749,19462.146073 10701.523460,19466.992259"/>
    <poly id="1022260133" type="building.yes" color="255,230,230" fill="1" layer="-1.00" shape="8995.705417,20295.336449 8995.599096,20278.877565 9059.791714,20281.843936 9059.539095,20297.154664 8995.705417,20295.336449"/>
    <poly id="1023086816" type="building.yes" color="255,230,230" fill="1" layer="-1.00" shape="10050.522148,19764.643085 10045.344226,19740.858329 10085.996844,19733.969736 10090.664784,19757.746052 10050.522148,19764.643085"/>
    <poly id="1023086817" type="building.yes" color="255,230,230" fill="1" layer="-1.00" shape="10041.654252,19730.428169 10033.416913,19684.390947 10073.032903,19677.374193 10081.269888,19723.422540 10041.654252,19730.428169"/>
    <poly id="1023086818" type="building.yes" color="255,230,230" fill="1" layer="-1.00" shape="9960.406155,19790.883629 9956.005460,19750.976215 9986.993347,19745.934202 9990.860005,19787.851115 9960.406155,19790.883629"/>
    <poly id="1023086819" type="building.yes" color="255,230,230" fill="1" layer="-1.00" shape="10098.102744,19758.601432 10094.717780,19733.781787 10144.624118,19727.047019 10148.008965,19751.866685 10098.102744,19758.601432"/>
    <poly id="1023086820" type="building.yes" color="255,230,230" fill="1" layer="-1.00" shape="10095.842434,19721.790231 10092.595683,19701.730396 10134.785789,19694.978402 10136.361978,19704.719211 10143.483551,19703.584299 10145.144952,19713.881014 10095.842434,19721.790231"/>
    <poly id="1023086821" type="building.yes" color="255,230,230" fill="1" layer="-1.00" shape="10154.294967,19750.995154 10152.362929,19731.400711 10183.657797,19728.360543 10185.580333,19747.954837 10154.294967,19750.995154"/>
    <poly id="1023086822" type="building.yes" color="255,230,230" fill="1" layer="-1.00" shape="10149.197197,19724.672105 10147.860113,19702.237471 10178.567896,19700.429590 10179.914540,19722.853301 10149.197197,19724.672105"/>
    <poly id="1023086823" type="building.yes" color="255,230,230" fill="1" layer="-1.00" shape="10023.835542,19662.429502 10022.890775,19645.934436 10034.122157,19645.300131 10034.606304,19653.692027 10039.295516,19653.426046 10039.756114,19661.529218 10023.835542,19662.429502"/>
    <poly id="1023086824" type="building.yes" color="255,230,230" fill="1" layer="-1.00" shape="10041.489130,19660.116303 10039.360942,19645.497949 10074.051059,19640.495428 10076.188457,19655.125035 10041.489130,19660.116303"/>
    <poly id="1023086825" type="building.yes" color="255,230,230" fill="1" layer="-1.00" shape="10087.555184,19685.034262 10087.666802,19668.634344 10137.937406,19668.991936 10137.825706,19685.391856 10087.555184,19685.034262"/>
    <poly id="1023086826" type="building.yes" color="255,230,230" fill="1" layer="-1.00" shape="10084.635794,19658.337092 10084.660280,19640.926561 10134.793982,19641.004612 10134.769226,19658.426234 10084.635794,19658.337092"/>
    <poly id="1023086827" type="building.yes" color="255,230,230" fill="1" layer="-1.00" shape="10149.569745,19698.251357 10148.017757,19680.226886 10178.237670,19677.656796 10179.789606,19695.681274 10149.569745,19698.251357"/>
    <poly id="1023086828" type="building.yes" color="255,230,230" fill="1" layer="-1.00" shape="10142.941663,19673.644003 10142.337540,19660.536950 10157.555706,19659.846984 10158.159810,19672.954038 10142.941663,19673.644003"/>
    <poly id="1023086829" type="building.yes" color="255,230,230" fill="1" layer="-1.00" shape="10140.471793,19652.876211 10139.398903,19640.127340 10155.638683,19638.777853 10156.711553,19651.526727 10140.471793,19652.876211"/>
    <poly id="1023086830" type="building.yes" color="255,230,230" fill="1" layer="-1.00" shape="10162.660830,19673.782877 10160.558212,19638.293956 10173.103627,19645.555361 10174.724615,19673.073831 10162.660830,19673.782877"/>
    <poly id="1023086831" type="building.yes" color="255,230,230" fill="1" layer="-1.00" shape="10285.927632,19656.844652 10284.982210,19634.161427 10301.380761,19633.491286 10302.316704,19656.174356 10285.927632,19656.844652"/>
    <poly id="1023086832" type="building.yes" color="255,230,230" fill="1" layer="-1.00" shape="10377.177138,19661.410964 10377.514128,19632.050807 10396.372648,19632.264539 10396.035603,19661.624697 10377.177138,19661.410964"/>
    <poly id="1023086833" type="building.yes" color="255,230,230" fill="1" layer="-1.00" shape="9998.513654,19494.986514 10008.696228,19553.032888 10060.994134,19543.953037 10050.802399,19485.906442 9998.513654,19494.986514"/>
    <poly id="1023086834" type="building.yes" color="255,230,230" fill="1" layer="-1.00" shape="9923.798057,19804.504716 9922.151630,19791.014445 9933.338135,19789.658460 9934.993990,19803.148889 9923.798057,19804.504716"/>
    <poly id="1023086835" type="building.yes" color="255,230,230" fill="1" layer="-1.00" shape="9823.230494,19823.708576 9820.084328,19807.809179 9870.675064,19797.923862 9873.821156,19813.823278 9823.230494,19823.708576"/>
    <poly id="1023086836" type="building.yes" color="255,230,230" fill="1" layer="-1.00" shape="9818.271545,19797.510025 9815.395111,19783.001320 9864.195644,19773.430083 9867.071830,19787.949891 9818.271545,19797.510025"/>
    <poly id="1023086837" type="building.yes" color="255,230,230" fill="1" layer="-1.00" shape="9689.422274,19824.918758 9686.080629,19809.404318 9741.662979,19797.516150 9745.013804,19813.041854 9689.422274,19824.918758"/>
    <poly id="1023086838" type="building.yes" color="255,230,230" fill="1" layer="-1.00" shape="9692.190009,19849.994148 9689.481729,19835.588079 9746.525831,19824.966202 9749.233852,19839.383376 9692.190009,19849.994148"/>
    <poly id="1023086839" type="building.yes" color="255,230,230" fill="1" layer="-1.00" shape="9712.223686,19900.695548 9706.755723,19870.429785 9739.617551,19864.553082 9745.075979,19894.818709 9712.223686,19900.695548"/>
    <poly id="1023086840" type="building.yes" color="255,230,230" fill="1" layer="-1.00" shape="9750.384743,19889.073438 9745.451349,19865.315098 9765.524086,19861.189528 9769.381804,19879.751145 9780.024676,19877.565351 9775.283279,19854.763893 9795.365678,19850.627450 9802.941496,19887.049746 9766.918574,19894.459709 9765.169145,19886.035784 9750.384743,19889.073438"/>
    <poly id="1023086841" type="building.yes" color="255,230,230" fill="1" layer="-1.00" shape="9889.098332,19854.565247 9884.010962,19830.427219 9931.437729,19820.534115 9936.524810,19844.683257 9889.098332,19854.565247"/>
    <poly id="1023086842" type="building.yes" color="255,230,230" fill="1" layer="-1.00" shape="9804.448502,19847.972240 9852.094285,19837.960418 9853.670795,19845.416686 9844.135934,19847.421155 9845.853235,19855.500781 9817.580284,19861.453190 9818.964515,19867.974726 9862.781543,19858.742332 9864.376926,19854.233066 9873.020895,19852.413464 9876.288172,19867.838032 9811.563090,19881.448117 9804.448502,19847.972240"/>
    <poly id="1023086843" type="building.yes" color="255,230,230" fill="1" layer="-1.00" shape="9862.440320,19842.290564 9860.474899,19830.946433 9879.172620,19827.729828 9881.147279,19839.085208 9862.440320,19842.290564"/>
    <poly id="1023086844" type="building.yes" color="255,230,230" fill="1" layer="-1.00" shape="9757.831209,19835.245146 9755.232682,19819.920424 9814.930350,19809.908454 9817.529159,19825.211022 9757.831209,19835.245146"/>
    <poly id="1023086845" type="building.yes" color="255,230,230" fill="1" layer="-1.00" shape="9754.391488,19809.692828 9751.309470,19793.905419 9806.370608,19783.273193 9809.443288,19799.049378 9754.391488,19809.692828"/>
    <poly id="1023086846" type="building.yes" color="255,230,230" fill="1" layer="-1.00" shape="9592.183395,19900.427147 9589.156451,19884.152761 9631.845450,19876.286942 9635.991102,19898.579416 9628.544665,19899.953267 9627.425889,19893.935196 9592.183395,19900.427147"/>
    <poly id="1023086847" type="building.yes" color="255,230,230" fill="1" layer="-1.00" shape="9590.979437,19901.837799 9607.875451,19898.468906 9609.332494,19905.734624 9638.054729,19900.010884 9641.903112,19919.148954 9596.294579,19928.230633 9590.979437,19901.837799"/>
    <poly id="1023086848" type="building.yes" color="255,230,230" fill="1" layer="-1.00" shape="9642.027396,19832.906064 9638.699080,19816.582313 9677.704954,19808.711149 9681.033211,19825.034914 9642.027396,19832.906064"/>
    <poly id="1023086849" type="building.yes" color="255,230,230" fill="1" layer="-1.00" shape="9646.521093,19857.566418 9643.193366,19840.067161 9681.631408,19832.829821 9684.968332,19850.340336 9646.521093,19857.566418"/>
    <poly id="1023086850" type="building.yes" color="255,230,230" fill="1" layer="-1.00" shape="9573.815826,19870.580121 9570.357989,19852.945664 9590.000432,19849.134235 9585.445891,19825.859125 9599.194678,19823.192232 9601.824628,19836.632165 9613.403395,19834.395147 9611.165337,19822.957850 9621.379830,19820.975504 9628.782276,19858.780980 9616.445391,19861.171777 9613.893844,19848.132366 9604.267007,19849.991367 9607.036459,19864.132266 9573.815826,19870.580121"/>
    <poly id="1023086851" type="building.yes" color="255,230,230" fill="1" layer="-1.00" shape="9893.772582,19309.925005 9890.964186,19295.295431 9911.061286,19291.480999 9913.860212,19306.110422 9893.772582,19309.925005"/>
    <poly id="1023086852" type="building.yes" color="255,230,230" fill="1" layer="-1.00" shape="9906.270845,19359.381772 9905.015372,19350.788580 9909.338030,19349.851070 9902.667331,19309.529047 9914.989016,19306.960867 9923.702974,19354.502936 9906.270845,19359.381772"/>
    <poly id="1023086853" type="building.yes" color="255,230,230" fill="1" layer="-1.00" shape="9524.515791,19855.015097 9521.604681,19840.295218 9580.884732,19828.666979 9583.805020,19843.398121 9524.515791,19855.015097"/>
    <poly id="1023086854" type="building.yes" color="255,230,230" fill="1" layer="-1.00" shape="9542.909081,19821.662031 9540.212401,19808.254283 9593.231414,19797.720216 9595.918403,19811.138911 9542.909081,19821.662031"/>
    <poly id="1023086855" type="building.yes" color="255,230,230" fill="1" layer="-1.00" shape="9589.433905,19781.776864 9586.088801,19765.319783 9533.550645,19775.895120 9536.905088,19792.363423 9589.433905,19781.776864"/>
    <poly id="1023086856" type="building.yes" color="255,230,230" fill="1" layer="-1.00" shape="9553.713679,19755.468708 9550.166736,19738.076766 9507.351104,19746.717143 9510.898114,19764.109067 9553.713679,19755.468708"/>
    <poly id="1023086857" type="building.yes" color="255,230,230" fill="1" layer="-1.00" shape="9503.247170,19765.280017 9499.277623,19746.594698 9428.249929,19761.511382 9432.219414,19780.207755 9503.247170,19765.280017"/>
    <poly id="1023086858" type="building.yes" color="255,230,230" fill="1" layer="-1.00" shape="9435.733408,19812.171008 9432.385778,19795.281449 9471.719628,19787.559091 9476.850434,19791.425539 9479.274290,19803.631062 9435.733408,19812.171008"/>
    <poly id="1023086859" type="building.yes" color="255,230,230" fill="1" layer="-1.00" shape="9503.196676,19830.575540 9500.403696,19814.992625 9435.439926,19826.494088 9438.232633,19842.099155 9503.196676,19830.575540"/>
    <poly id="1023086860" type="building.yes" color="255,230,230" fill="1" layer="-1.00" shape="9492.187277,19802.957444 9491.082616,19796.651295 9485.787809,19797.561801 9483.958189,19787.118283 9496.593794,19784.942968 9498.564412,19788.003059 9506.037949,19786.707185 9508.040258,19798.129462 9501.129515,19799.090861 9502.210979,19803.943872 9499.131563,19804.536144 9498.656791,19801.833485 9492.187277,19802.957444"/>
    <poly id="1023088772" type="building.yes" color="255,230,230" fill="1" layer="-1.00" shape="9514.585755,19826.671813 9513.831670,19820.870498 9508.540724,19821.548171 9507.099281,19810.478952 9512.011620,19809.850464 9511.542263,19806.249626 9518.215109,19805.395196 9521.408355,19811.625002 9526.095817,19811.458569 9527.992033,19804.170711 9530.736932,19803.816888 9533.393066,19824.243766 9514.585755,19826.671813"/>
    <poly id="1023088773" type="building.yes" color="255,230,230" fill="1" layer="-1.00" shape="9402.255103,19775.354133 9414.012605,19766.876325 9420.317819,19776.262663 9414.769274,19779.952534 9422.438319,19790.825265 9416.457541,19794.951578 9424.910201,19806.413932 9420.408581,19809.622070 9427.467512,19821.405168 9422.711685,19824.564743 9430.888011,19836.743368 9423.506031,19841.644970 9425.529022,19848.964369 9415.870334,19851.610390 9411.912487,19845.922467 9418.246452,19841.569107 9409.731106,19829.329439 9415.788318,19825.148938 9408.785951,19815.085692 9411.499912,19809.175372 9407.105830,19799.022170 9411.506883,19795.612749 9404.672342,19785.108693 9408.111747,19782.736898 9402.255103,19775.354133"/>
    <poly id="1023088774" type="building.yes" color="255,230,230" fill="1" layer="-1.00" shape="9573.229739,19757.022579 9572.702450,19754.640650 9565.630684,19756.198188 9564.417879,19750.721970 9559.403378,19751.814514 9555.984865,19736.365398 9569.720562,19733.354461 9571.311326,19740.533663 9579.738513,19738.688044 9582.348642,19750.475269 9575.096731,19752.074179 9576.265988,19757.327883 9573.229739,19757.022579"/>
    <poly id="1023088775" type="building.yes" color="255,230,230" fill="1" layer="-1.00" shape="10422.212080,20175.351161 10419.464515,20159.968270 10454.143650,20153.835787 10456.891165,20169.218690 10422.212080,20175.351161"/>
    <poly id="1023088776" type="building.yes" color="255,230,230" fill="1" layer="-1.00" shape="10417.679413,20146.342486 10415.404858,20130.912015 10459.694859,20124.451442 10461.969165,20139.893012 10417.679413,20146.342486"/>
    <poly id="1023088777" type="building.yes" color="255,230,230" fill="1" layer="-1.00" shape="10414.196083,20117.273638 10411.794301,20101.541629 10453.011110,20095.307155 10455.412646,20111.050263 10414.196083,20117.273638"/>
    <poly id="1023088778" type="building.yes" color="255,230,230" fill="1" layer="-1.00" shape="10398.149425,20061.047657 10395.977570,20045.685442 10453.157177,20037.698073 10455.328764,20053.071390 10398.149425,20061.047657"/>
    <poly id="1023088779" type="building.yes" color="255,230,230" fill="1" layer="-1.00" shape="10415.184947,20347.425626 10410.582751,20326.577880 10443.787749,20319.322986 10448.389882,20340.170749 10415.184947,20347.425626"/>
    <poly id="1023088780" type="building.yes" color="255,230,230" fill="1" layer="-1.00" shape="10411.185112,20322.728648 10405.353886,20300.818024 10434.704014,20293.088661 10440.535184,20314.999304 10411.185112,20322.728648"/>
    <poly id="1023088781" type="building.yes" color="255,230,230" fill="1" layer="-1.00" shape="10418.238043,20205.316242 10415.679472,20189.359825 10461.579505,20182.049958 10464.147266,20198.017634 10418.238043,20205.316242"/>
    <poly id="1023088782" type="building.yes" color="255,230,230" fill="1" layer="-1.00" shape="10425.527877,20213.921189 10466.853126,20207.954756 10469.032200,20222.873526 10427.697567,20228.839791 10425.527877,20213.921189"/>
    <poly id="1023088783" type="building.yes" color="255,230,230" fill="1" layer="-1.00" shape="10431.411684,20252.545027 10429.061760,20235.971045 10469.816158,20230.250199 10472.165834,20246.835280 10431.411684,20252.545027"/>
    <poly id="1023088784" type="building.yes" color="255,230,230" fill="1" layer="-1.00" shape="10442.606573,20275.642780 10439.977729,20259.940248 10472.585457,20254.538586 10475.214253,20270.241128 10442.606573,20275.642780"/>
    <poly id="1023088785" type="building.yes" color="255,230,230" fill="1" layer="-1.00" shape="10451.510434,20300.199559 10448.208781,20292.581387 10446.832147,20284.496198 10478.088271,20278.584122 10481.074136,20296.665827 10451.510434,20300.199559"/>
    <poly id="1023088786" type="building.yes" color="255,230,230" fill="1" layer="-1.00" shape="10461.651168,20307.177406 10464.543817,20323.483186 10484.582685,20321.931336 10481.700582,20304.993605 10461.651168,20307.177406"/>
    <poly id="1023088787" type="building.yes" color="255,230,230" fill="1" layer="-1.00" shape="10488.714251,20332.457772 10482.941650,20291.140908 10513.134903,20288.371848 10514.011059,20296.448720 10511.699747,20298.561678 10513.934616,20316.364743 10517.009477,20321.716845 10518.540225,20329.050505 10488.714251,20332.457772"/>
    <poly id="1023088788" type="building.yes" color="255,230,230" fill="1" layer="-1.00" shape="10493.753467,20367.330351 10492.404306,20356.462069 10521.467446,20352.920133 10522.807319,20363.777177 10493.753467,20367.330351"/>