<?xml version="1.0" encoding="UTF-8"?>

<!-- generated on 2022-07-25 13:50:01 by Eclipse SUMO duarouter Version 1.13.0
<configuration xmlns:xsi="http://www.w3.org/2001/XMLSchema-instance" xsi:noNamespaceSchemaLocation="http://sumo.dlr.de/xsd/duarouterConfiguration.xsd">

    <input>
        <net-file value="F:\projects\streamlit\streamlit_book\sumo_demo1\2022-07-25-13-49-47\osm.net.xml"/>
        <route-files value="F:\projects\streamlit\streamlit_book\sumo_demo1\2022-07-25-13-49-47\osm.passenger.trips.xml"/>
    </input>

    <output>
        <output-file value="F:\projects\streamlit\streamlit_book\sumo_demo1\2022-07-25-13-49-47\osm.passenger.trips.xml.tmp"/>
        <write-trips value="true"/>
    </output>

    <time>
        <begin value="0"/>
        <end value="3600"/>
    </time>

    <report>
        <no-warnings value="true"/>
        <ignore-errors value="true"/>
        <no-step-log value="true"/>
    </report>

</configuration>
-->

<routes xmlns:xsi="http://www.w3.org/2001/XMLSchema-instance" xsi:noNamespaceSchemaLocation="http://sumo.dlr.de/xsd/routes_file.xsd">
    <vType id="veh_passenger" vClass="passenger"/>
    <trip id="veh0" type="veh_passenger" depart="0.00" departLane="best" from="382844528#3" to="-105830916#3"/>
    <trip id="veh1" type="veh_passenger" depart="1.29" departLane="best" departSpeed="max" from="-89566371#4" to="-62352731#2"/>
    <trip id="veh2" type="veh_passenger" depart="2.58" departLane="best" from="524568471#3" to="425459416#0"/>
    <trip id="veh3" type="veh_passenger" depart="3.87" departLane="best" from="89562363#4" to="-165397335#0"/>
    <trip id="veh4" type="veh_passenger" depart="5.16" departLane="best" from="142741651#1" to="-1061577694#0"/>
    <trip id="veh5" type="veh_passenger" depart="6.45" departLane="best" from="-52502392#2" to="223942346"/>
    <trip id="veh6" type="veh_passenger" depart="7.74" departLane="best" from="-106972919" to="-52458554#0"/>
    <trip id="veh7" type="veh_passenger" depart="9.03" departLane="best" from="422206222#3" to="265043745"/>
    <trip id="veh8" type="veh_passenger" depart="10.32" departLane="best" from="-52502392#4" to="319055640"/>
    <trip id="veh9" type="veh_passenger" depart="11.61" departLane="best" from="61879252#2" to="-1044280141#0"/>
    <trip id="veh10" type="veh_passenger" depart="12.90" departLane="best" from="61879252#0" to="432974118#7"/>
    <trip id="veh11" type="veh_passenger" depart="14.19" departLane="best" from="-99979556#1" to="-291319631#3"/>
    <trip id="veh12" type="veh_passenger" depart="15.48" departLane="best" from="94327820#2" to="-99979602#0"/>
    <trip id="veh13" type="veh_passenger" depart="16.77" departLane="best" from="781272624#1" to="319677999#2"/>
    <trip id="veh14" type="veh_passenger" depart="18.06" departLane="best" from="61879252#1" to="52458554#1"/>
    <trip id="veh15" type="veh_passenger" depart="19.35" departLane="best" from="254468112" to="99979555#1"/>
    <trip id="veh16" type="veh_passenger" depart="20.64" departLane="best" departSpeed="max" from="105830599#0" to="27796679#0"/>
    <trip id="veh17" type="veh_passenger" depart="21.93" departLane="best" departSpeed="max" from="75659478#0" to="375025774"/>
    <trip id="veh18" type="veh_passenger" depart="23.22" departLane="best" from="826049219" to="309231778#1"/>
    <trip id="veh19" type="veh_passenger" depart="24.51" departLane="best" from="432974118#4" to="-142741651#0"/>
    <trip id="veh20" type="veh_passenger" depart="25.80" departLane="best" from="-61857815" to="-91828640#0"/>
    <trip id="veh21" type="veh_passenger" depart="27.09" departLane="best" from="-162311604#0" to="-775888153"/>
    <trip id="veh22" type="veh_passenger" depart="28.38" departLane="best" from="-223942407#1" to="-89642715#0"/>
    <trip id="veh23" type="veh_passenger" depart="29.67" departLane="best" from="382844495#0" to="1060254067#2"/>
    <trip id="veh24" type="veh_passenger" depart="30.97" departLane="best" from="1044280141#1" to="-52502912#1"/>
    <trip id="veh25" type="veh_passenger" depart="32.26" departLane="best" from="-857565972#1" to="91828643#1"/>
    <trip id="veh26" type="veh_passenger" depart="33.55" departLane="best" from="422206222#1" to="332813232#0"/>
    <trip id="veh27" type="veh_passenger" depart="34.84" departLane="best" from="-390566340#1" to="52458554#0"/>
    <trip id="veh28" type="veh_passenger" depart="36.13" departLane="best" departSpeed="max" from="-375025773#1" to="106972920#2"/>
    <trip id="veh29" type="veh_passenger" depart="37.42" departLane="best" from="99979561#1" to="422206243#1"/>
    <trip id="veh30" type="veh_passenger" depart="38.71" departLane="best" from="265042795" to="425461020#1"/>
    <trip id="veh31" type="veh_passenger" depart="40.00" departLane="best" from="-61857817#1" to="-106972918"/>
    <trip id="veh32" type="veh_passenger" depart="41.29" departLane="best" departSpeed="max" from="-93690091#2" to="-89637250#2"/>
    <trip id="veh33" type="veh_passenger" depart="42.58" departLane="best" departSpeed="max" from="-524568471#4" to="92361436#1"/>
    <trip id="veh34" type="veh_passenger" depart="43.87" departLane="best" from="857565972#0" to="-96779088#1"/>
    <trip id="veh35" type="veh_passenger" depart="45.16" departLane="best" from="422206263#0" to="142488976"/>
    <trip id="veh36" type="veh_passenger" depart="46.45" departLane="best" from="89637284#1" to="160774588#1"/>
    <trip id="veh37" type="veh_passenger" depart="47.74" departLane="best" from="-857565970#2" to="-854929433#1"/>
    <trip id="veh38" type="veh_passenger" depart="49.03" departLane="best" from="275970114#0" to="-89637244#1"/>
    <trip id="veh39" type="veh_passenger" depart="50.32" departLane="best" from="291319631#3" to="89637182#1"/>
    <trip id="veh40" type="veh_passenger" depart="51.61" departLane="best" from="1061577700" to="-61857817#1"/>
    <trip id="veh41" type="veh_passenger" depart="52.90" departLane="best" from="99979605#0" to="224217800"/>
    <trip id="veh42" type="veh_passenger" depart="54.19" departLane="best" from="-192105382" to="-146496699#0"/>
    <trip id="veh43" type="veh_passenger" depart="55.48" departLane="best" departSpeed="max" from="-233258650" to="390566340#2"/>
    <trip id="veh44" type="veh_passenger" depart="56.77" departLane="best" from="61816161#7" to="146496700"/>
    <trip id="veh45" type="veh_passenger" depart="58.06" departLane="best" from="-155900461#5" to="106972920#2"/>
    <trip id="veh46" type="veh_passenger" depart="59.35" departLane="best" from="99979602#1" to="254468842"/>
    <trip id="veh47" type="veh_passenger" depart="60.64" departLane="best" from="96779089" to="854929433#3"/>
    <trip id="veh48" type="veh_passenger" depart="61.93" departLane="best" departSpeed="max" from="-1056474965" to="524568467#3"/>
    <trip id="veh49" type="veh_passenger" depart="63.22" departLane="best" from="425459416#0" to="256938736#0"/>
    <trip id="veh50" type="veh_passenger" depart="64.51" departLane="best" from="-857565972#1" to="422206243#2"/>
    <trip id="veh51" type="veh_passenger" depart="65.80" departLane="best" from="-237175531#0" to="155882991"/>
    <trip id="veh52" type="veh_passenger" depart="67.09" departLane="best" from="155900473" to="943472402"/>
    <trip id="veh53" type="veh_passenger" depart="68.38" departLane="best" from="857565971" to="-89637244#2"/>
    <trip id="veh54" type="veh_passenger" depart="69.67" departLane="best" departSpeed="max" from="165486156#0" to="-422206263#1"/>
    <trip id="veh55" type="veh_passenger" depart="70.96" departLane="best" from="89637282#2" to="89545832#1"/>
    <trip id="veh56" type="veh_passenger" depart="72.25" departLane="best" from="-91364633#1" to="422206243#1"/>
    <trip id="veh57" type="veh_passenger" depart="73.54" departLane="best" from="319125074#1" to="-27811740#1"/>
    <trip id="veh58" type="veh_passenger" depart="74.83" departLane="best" from="553681859#3" to="256938736#4"/>
    <trip id="veh59" type="veh_passenger" depart="76.12" departLane="best" departSpeed="max" from="61813749" to="254468842"/>
    <trip id="veh60" type="veh_passenger" depart="77.41" departLane="best" from="-100102162#0" to="-99979553#0"/>
    <trip id="veh61" type="veh_passenger" depart="78.70" departLane="best" from="-1060254071" to="91828639#1"/>
    <trip id="veh63" type="veh_passenger" depart="81.28" departLane="best" from="-91828642#6" to="-155882951#1"/>
    <trip id="veh64" type="veh_passenger" depart="82.57" departLane="best" from="857565974" to="93690091#1"/>
    <trip id="veh65" type="veh_passenger" depart="83.86" departLane="best" from="-165397335#1" to="162311606#3"/>
    <trip id="veh66" type="veh_passenger" depart="85.15" departLane="best" from="-161318989#0" to="61816161#7"/>
    <trip id="veh67" type="veh_passenger" depart="86.44" departLane="best" from="553681859#5" to="-265041497"/>
    <trip id="veh68" type="veh_passenger" depart="87.73" departLane="best" from="161318989#2" to="275970114#1"/>
    <trip id="veh69" type="veh_passenger" depart="89.02" departLane="best" from="-857565970#2" to="89562363#0"/>
    <trip id="veh70" type="veh_passenger" depart="90.31" departLane="best" from="146496699#0" to="-61814416#2"/>
    <trip id="veh71" type="veh_passenger" depart="91.61" departLane="best" departSpeed="max" from="254468843" to="52458711"/>
    <trip id="veh72" type="veh_passenger" depart="92.90" departLane="best" from="-425461020#0" to="-96779088#0"/>
    <trip id="veh73" type="veh_passenger" depart="94.19" departLane="best" from="99979578#0" to="422921345"/>
    <trip id="veh74" type="veh_passenger" depart="95.48" departLane="best" from="155882951#0" to="237175531#1"/>
    <trip id="veh75" type="veh_passenger" depart="96.77" departLane="best" from="-265041450#0" to="-684111939"/>
    <trip id="veh76" type="veh_passenger" depart="98.06" departLane="best" from="-99979553#1" to="319055639#0"/>
    <trip id="veh77" type="veh_passenger" depart="99.35" departLane="best" from="-62352731#2" to="-62352731#0"/>
    <trip id="veh78" type="veh_passenger" depart="100.64" departLane="best" from="-161318989#1" to="414745094#2"/>
    <trip id="veh79" type="veh_passenger" depart="101.93" departLane="best" from="-61857817#1" to="89637249#3"/>
    <trip id="veh80" type="veh_passenger" depart="103.22" departLane="best" from="-775888147#0" to="423314373#1"/>
    <trip id="veh81" type="veh_passenger" depart="104.51" departLane="best" from="-52458554#1" to="-275970114#0"/>
    <trip id="veh82" type="veh_passenger" depart="105.80" departLane="best" from="91734407#0" to="291319631#2"/>
    <trip id="veh83" type="veh_passenger" depart="107.09" departLane="best" from="161318989#0" to="62352731#1"/>
    <trip id="veh84" type="veh_passenger" depart="108.38" departLane="best" from="61879252#1" to="-425461020#3"/>
    <trip id="veh85" type="veh_passenger" depart="109.67" departLane="best" departSpeed="max" from="-223942066#1" to="155882951#1"/>
    <trip id="veh86" type="veh_passenger" depart="110.96" departLane="best" from="146496699#1" to="161318989#5"/>
    <trip id="veh87" type="veh_passenger" depart="112.25" departLane="best" from="524568467#1" to="423517904#2"/>
    <trip id="veh88" type="veh_passenger" depart="113.54" departLane="best" from="99979556#3" to="-223942066#0"/>
    <trip id="veh89" type="veh_passenger" depart="114.83" departLane="best" from="1061607204" to="-99979605#1"/>
    <trip id="veh90" type="veh_passenger" depart="116.12" departLane="best" from="826049219" to="-857565970#1"/>
    <trip id="veh91" type="veh_passenger" depart="117.41" departLane="best" from="-423314370#0" to="155900479#1"/>
    <trip id="veh92" type="veh_passenger" depart="118.70" departLane="best" from="142741651#1" to="-89642715#1"/>
    <trip id="veh94" type="veh_passenger" depart="121.28" departLane="best" from="155883037#0" to="857565970#0"/>
    <trip id="veh95" type="veh_passenger" depart="122.57" departLane="best" from="256938736#1" to="-147399827#0"/>
    <trip id="veh96" type="veh_passenger" depart="123.86" departLane="best" from="99979616" to="826049216"/>
    <trip id="veh97" type="veh_passenger" depart="125.15" departLane="best" from="781272624#2" to="-382844528#0"/>
    <trip id="veh98" type="veh_passenger" depart="126.44" departLane="best" from="162239103#2" to="-61816318#0"/>
    <trip id="veh99" type="veh_passenger" depart="127.73" departLane="best" from="1061607193" to="-155883037#0"/>
    <trip id="veh100" type="veh_passenger" depart="129.02" departLane="best" departSpeed="max" from="105830599#0" to="99979574#1"/>
    <trip id="veh101" type="veh_passenger" depart="130.31" departLane="best" from="-857565970#2" to="62352731#0"/>
    <trip id="veh102" type="veh_passenger" depart="131.60" departLane="best" from="155900479#0" to="147399827#0"/>
    <trip id="veh103" type="veh_passenger" depart="132.89" departLane="best" from="94327820#2" to="99979615"/>
    <trip id="veh104" type="veh_passenger" depart="134.18" departLane="best" from="-319055640" to="-91828678#1"/>
    <trip id="veh105" type="veh_passenger" depart="135.47" departLane="best" departSpeed="max" from="96779088#0" to="309231778#3"/>
    <trip id="veh107" type="veh_passenger" depart="138.05" departLane="best" from="-155882951#0" to="310010240"/>
    <trip id="veh108" type="veh_passenger" depart="139.34" departLane="best" from="165486156#2" to="854929433#1"/>
    <trip id="veh109" type="veh_passenger" depart="140.63" departLane="best" departSpeed="max" from="-332813232#1" to="957457981#1"/>
    <trip id="veh110" type="veh_passenger" depart="141.92" departLane="best" from="-162311604#1" to="-423314370#2"/>
    <trip id="veh111" type="veh_passenger" depart="143.21" departLane="best" from="-684111940#0" to="-255219177"/>
    <trip id="veh112" type="veh_passenger" depart="144.50" departLane="best" from="89562363#3" to="-854929433#0"/>
    <trip id="veh113" type="veh_passenger" depart="145.79" departLane="best" from="142488978" to="309232093"/>
    <trip id="veh114" type="veh_passenger" depart="147.08" departLane="best" from="224217801#2" to="91828642#5"/>
    <trip id="veh115" type="veh_passenger" depart="148.37" departLane="best" from="-432528029" to="524568467#0"/>
    <trip id="veh116" type="veh_passenger" depart="149.66" departLane="best" from="-775888149#0" to="142488977"/>
    <trip id="veh117" type="veh_passenger" depart="150.96" departLane="best" departSpeed="max" from="423351050#0" to="-93690068#3"/>
    <trip id="veh118" type="veh_passenger" depart="152.25" departLane="best" departSpeed="max" from="-93690091#2" to="61814416#5"/>
    <trip id="veh119" type="veh_passenger" depart="153.54" departLane="best" from="-161318989#3" to="160774588#1"/>
    <trip id="veh120" type="veh_passenger" depart="154.83" departLane="best" from="99979615" to="99979616"/>
    <trip id="veh121" type="veh_passenger" depart="156.12" departLane="best" from="-161318989#3" to="-61814416#5"/>
    <trip id="veh122" type="veh_passenger" depart="157.41" departLane="best" from="-857565970#2" to="91828642#3"/>
    <trip id="veh123" type="veh_passenger" depart="158.70" departLane="best" from="89545382#1" to="89562363#4"/>
    <trip id="veh124" type="veh_passenger" depart="159.99" departLane="best" departSpeed="max" from="1044280141#0" to="-318198216#3"/>
    <trip id="veh125" type="veh_passenger" depart="161.28" departLane="best" from="763482820#1" to="436666796#2"/>
    <trip id="veh126" type="veh_passenger" depart="162.57" departLane="best" from="319125074#3" to="99979578#1"/>
    <trip id="veh127" type="veh_passenger" depart="163.86" departLane="best" from="422206243#2" to="-1044280141#2"/>
    <trip id="veh129" type="veh_passenger" depart="166.44" departLane="best" from="423287196#0" to="91828644"/>
    <trip id="veh130" type="veh_passenger" depart="167.73" departLane="best" from="-27796679#2" to="-237022774"/>
    <trip id="veh131" type="veh_passenger" depart="169.02" departLane="best" from="-224217801#1" to="27796679#1"/>
    <trip id="veh132" type="veh_passenger" depart="170.31" departLane="best" from="-89566371#1" to="319677999#3"/>
    <trip id="veh133" type="veh_passenger" depart="171.60" departLane="best" departSpeed="max" from="436666797" to="-52502392#2"/>
    <trip id="veh134" type="veh_passenger" depart="172.89" departLane="best" from="375025774" to="-89637244#3"/>
    <trip id="veh135" type="veh_passenger" depart="174.18" departLane="best" from="162311599#0" to="89637249#3"/>
    <trip id="veh136" type="veh_passenger" depart="175.47" departLane="best" from="781272624#1" to="-165486156#2"/>
    <trip id="veh137" type="veh_passenger" depart="176.76" departLane="best" from="146496699#1" to="-89638687#2"/>
    <trip id="veh138" type="veh_passenger" depart="178.05" departLane="best" from="-1015404009" to="61879252#0"/>
    <trip id="veh139" type="veh_passenger" depart="179.34" departLane="best" from="382844495#3" to="-89637244#0"/>
    <trip id="veh140" type="veh_passenger" depart="180.63" departLane="best" from="52502392#2" to="275970114#2"/>
    <trip id="veh141" type="veh_passenger" depart="181.92" departLane="best" departSpeed="max" from="147399827#0" to="-1056474964"/>
    <trip id="veh142" type="veh_passenger" depart="183.21" departLane="best" from="-161318989#6" to="89562363#5"/>
    <trip id="veh143" type="veh_passenger" depart="184.50" departLane="best" from="89637182#3" to="265043745"/>
    <trip id="veh144" type="veh_passenger" depart="185.79" departLane="best" from="763482820#1" to="309232093"/>
    <trip id="veh145" type="veh_passenger" depart="187.08" departLane="best" from="-27811740#0" to="-265041497"/>
    <trip id="veh146" type="veh_passenger" depart="188.37" departLane="best" from="-91828646#1" to="89637244#0"/>
    <trip id="veh147" type="veh_passenger" depart="189.66" departLane="best" from="61816318#1" to="854929433#3"/>
    <trip id="veh148" type="veh_passenger" depart="190.95" departLane="best" from="89566371#2" to="-52502912#2"/>
    <trip id="veh150" type="veh_passenger" depart="193.53" departLane="best" departSpeed="max" from="61813749" to="89562363#5"/>
    <trip id="veh151" type="veh_passenger" depart="194.82" departLane="best" from="1075931143#1" to="382844495#1"/>
    <trip id="veh152" type="veh_passenger" depart="196.11" departLane="best" from="-319055639#1" to="91828640#0"/>
    <trip id="veh153" type="veh_passenger" depart="197.40" departLane="best" from="854929432#1" to="99979557"/>
    <trip id="veh154" type="veh_passenger" depart="198.69" departLane="best" from="61957183" to="89562363#5"/>
    <trip id="veh155" type="veh_passenger" depart="199.98" departLane="best" departSpeed="max" from="-106972916" to="52502912#0"/>
    <trip id="veh156" type="veh_passenger" depart="201.27" departLane="best" from="-99978916#0" to="91828641"/>
    <trip id="veh157" type="veh_passenger" depart="202.56" departLane="best" from="61857817#1" to="857565972#1"/>
    <trip id="veh158" type="veh_passenger" depart="203.85" departLane="best" from="61957183" to="-89637250#1"/>
    <trip id="veh159" type="veh_passenger" depart="205.14" departLane="best" from="61816161#3" to="-224217801#1"/>
    <trip id="veh160" type="veh_passenger" depart="206.43" departLane="best" from="854929433#1" to="854929433#3"/>
    <trip id="veh161" type="veh_passenger" depart="207.72" departLane="best" from="158323735#1" to="-949327405"/>
    <trip id="veh162" type="veh_passenger" depart="209.01" departLane="best" departSpeed="max" from="61816318#0" to="-74658012#0"/>
    <trip id="veh163" type="veh_passenger" depart="210.30" departLane="best" departSpeed="max" from="-106972916" to="-432528029"/>
    <trip id="veh164" type="veh_passenger" depart="211.60" departLane="best" from="-96779085#0" to="857565972#1"/>
    <trip id="veh165" type="veh_passenger" depart="212.89" departLane="best" departSpeed="max" from="96779088#0" to="-89642716"/>
    <trip id="veh166" type="veh_passenger" depart="214.18" departLane="best" from="382972404" to="142488977"/>
    <trip id="veh167" type="veh_passenger" depart="215.47" departLane="best" from="99979553#1" to="256938735#6"/>
    <trip id="veh168" type="veh_passenger" depart="216.76" departLane="best" from="91828640#1" to="-237022774"/>
    <trip id="veh169" type="veh_passenger" depart="218.05" departLane="best" from="96779088#2" to="-422206263#1"/>
    <trip id="veh170" type="veh_passenger" depart="219.34" departLane="best" from="957457980#1" to="-89637249#2"/>
    <trip id="veh171" type="veh_passenger" depart="220.63" departLane="best" departSpeed="max" from="-233258650" to="155882991"/>
    <trip id="veh172" type="veh_passenger" depart="221.92" departLane="best" from="524568467#1" to="-96779088#0"/>
    <trip id="veh173" type="veh_passenger" depart="223.21" departLane="best" departSpeed="max" from="319125074#0" to="224217800"/>
    <trip id="veh174" type="veh_passenger" depart="224.50" departLane="best" departSpeed="max" from="105830916#0" to="309231778#0"/>
    <trip id="veh175" type="veh_passenger" depart="225.79" departLane="best" from="-854929432#2" to="444087519"/>
    <trip id="veh176" type="veh_passenger" depart="227.08" departLane="best" from="-100102162#2" to="91364633#2"/>
    <trip id="veh177" type="veh_passenger" depart="228.37" departLane="best" departSpeed="max" from="254468843" to="524568467#2"/>
    <trip id="veh179" type="veh_passenger" depart="230.95" departLane="best" from="100944617" to="-158323737"/>
    <trip id="veh180" type="veh_passenger" depart="232.24" departLane="best" from="423287196#2" to="-99979560#0"/>
    <trip id="veh181" type="veh_passenger" depart="233.53" departLane="best" from="-93690091#1" to="854929432#3"/>
    <trip id="veh182" type="veh_passenger" depart="234.82" departLane="best" from="444087519" to="-93690091#0"/>
    <trip id="veh183" type="veh_passenger" depart="236.11" departLane="best" from="-91828678#0" to="142741651#2"/>
    <trip id="veh184" type="veh_passenger" depart="237.40" departLane="best" from="1061607204" to="-91828646#1"/>
    <trip id="veh185" type="veh_passenger" depart="238.69" departLane="best" from="-275865202" to="146496700"/>
    <trip id="veh186" type="veh_passenger" depart="239.98" departLane="best" from="91828642#0" to="425459416#1"/>
    <trip id="veh187" type="veh_passenger" depart="241.27" departLane="best" departSpeed="max" from="89637182#0" to="375025773#1"/>
    <trip id="veh188" type="veh_passenger" depart="242.56" departLane="best" from="-91734407#1" to="275865202"/>
    <trip id="veh189" type="veh_passenger" depart="243.85" departLane="best" from="-100102162#0" to="-91364633#3"/>
    <trip id="veh190" type="veh_passenger" depart="245.14" departLane="best" departSpeed="max" from="147399827#0" to="309231778#3"/>
    <trip id="veh191" type="veh_passenger" depart="246.43" departLane="best" from="422206250" to="161318989#2"/>
    <trip id="veh192" type="veh_passenger" depart="247.72" departLane="best" from="155882991" to="-61814416#5"/>
    <trip id="veh193" type="veh_passenger" depart="249.01" departLane="best" from="161318989#0" to="89637244#4"/>
    <trip id="veh194" type="veh_passenger" depart="250.30" departLane="best" from="61816318#1" to="-390566340#1"/>
    <trip id="veh195" type="veh_passenger" depart="251.59" departLane="best" from="-165397335#0" to="233258650"/>
    <trip id="veh196" type="veh_passenger" depart="252.88" departLane="best" from="375025774" to="-99979574#0"/>
    <trip id="veh197" type="veh_passenger" depart="254.17" departLane="best" from="65135834#0" to="61814416#4"/>
    <trip id="veh198" type="veh_passenger" depart="255.46" departLane="best" departSpeed="max" from="423351050#0" to="-684111939"/>
    <trip id="veh199" type="veh_passenger" depart="256.75" departLane="best" from="-423517904#1" to="-105830916#3"/>
    <trip id="veh201" type="veh_passenger" depart="259.33" departLane="best" from="781272624#2" to="-161318989#1"/>
    <trip id="veh202" type="veh_passenger" depart="260.62" departLane="best" from="141166589#0" to="414745094#1"/>
    <trip id="veh203" type="veh_passenger" depart="261.91" departLane="best" departSpeed="max" from="-423314370#2" to="432974118#7"/>
    <trip id="veh204" type="veh_passenger" depart="263.20" departLane="best" from="162311604#4" to="-854929432#4"/>
    <trip id="veh205" type="veh_passenger" depart="264.49" departLane="best" from="422206263#0" to="-1044280141#0"/>
    <trip id="veh206" type="veh_passenger" depart="265.78" departLane="best" departSpeed="max" from="553681859#0" to="61877416#2"/>
    <trip id="veh207" type="veh_passenger" depart="267.07" departLane="best" from="-224217801#1" to="147399827#2"/>
    <trip id="veh208" type="veh_passenger" depart="268.36" departLane="best" departSpeed="max" from="-414745094#2" to="949327406#1"/>
    <trip id="veh209" type="veh_passenger" depart="269.65" departLane="best" departSpeed="max" from="223957414#0" to="-147399827#0"/>
    <trip id="veh211" type="veh_passenger" depart="272.24" departLane="best" from="158298805#1" to="75659478#1"/>
    <trip id="veh212" type="veh_passenger" depart="273.53" departLane="best" from="423314370#2" to="99979578#1"/>
    <trip id="veh213" type="veh_passenger" depart="274.82" departLane="best" from="309232093" to="93690091#2"/>
    <trip id="veh214" type="veh_passenger" depart="276.11" departLane="best" from="89562363#4" to="336014580"/>
    <trip id="veh215" type="veh_passenger" depart="277.40" departLane="best" from="444087518" to="223942251#1"/>
    <trip id="veh216" type="veh_passenger" depart="278.69" departLane="best" departSpeed="max" from="75659478#0" to="275865202"/>
    <trip id="veh217" type="veh_passenger" depart="279.98" departLane="best" from="89562527" to="553681859#4"/>
    <trip id="veh218" type="veh_passenger" depart="281.27" departLane="best" from="161318989#1" to="-89637182#0"/>
    <trip id="veh220" type="veh_passenger" depart="283.85" departLane="best" from="553681859#5" to="237318475"/>
    <trip id="veh221" type="veh_passenger" depart="285.14" departLane="best" from="319980895" to="-89638687#0"/>
    <trip id="veh222" type="veh_passenger" depart="286.43" departLane="best" from="-162311599#0" to="-91364633#1"/>
    <trip id="veh223" type="veh_passenger" depart="287.72" departLane="best" from="-89566371#0" to="-99978916#1"/>
    <trip id="veh224" type="veh_passenger" depart="289.01" departLane="best" departSpeed="max" from="254468843" to="-27796679#2"/>
    <trip id="veh225" type="veh_passenger" depart="290.30" departLane="best" departSpeed="max" from="-62352731#3" to="432974118#5"/>
    <trip id="veh226" type="veh_passenger" depart="291.59" departLane="best" from="436666796#0" to="-155900479#0"/>
    <trip id="veh228" type="veh_passenger" depart="294.17" departLane="best" from="141166589#2" to="-52502912#0"/>
    <trip id="veh229" type="veh_passenger" depart="295.46" departLane="best" from="142741651#0" to="89637249#3"/>
    <trip id="veh230" type="veh_passenger" depart="296.75" departLane="best" from="291319631#2" to="432974118#7"/>
    <trip id="veh231" type="veh_passenger" depart="298.04" departLane="best" from="826049217#1" to="61857815"/>
    <trip id="veh232" type="veh_passenger" depart="299.33" departLane="best" departSpeed="max" from="105830916#0" to="-1044280141#0"/>
    <trip id="veh233" type="veh_passenger" depart="300.62" departLane="best" departSpeed="max" from="-99979578#1" to="61816161#1"/>
    <trip id="veh234" type="veh_passenger" depart="301.91" departLane="best" from="781272626#2" to="94327820#5"/>
    <trip id="veh236" type="veh_passenger" depart="304.49" departLane="best" from="256938735#1" to="319677999#2"/>
    <trip id="veh237" type="veh_passenger" depart="305.78" departLane="best" from="-52502392#4" to="-61857817#1"/>
    <trip id="veh238" type="veh_passenger" depart="307.07" departLane="best" from="154437487" to="-1060254072"/>
    <trip id="veh239" type="veh_passenger" depart="308.36" departLane="best" from="-99979311#0" to="425459416#2"/>
    <trip id="veh241" type="veh_passenger" depart="310.94" departLane="best" from="160774588#0" to="-265041497"/>
    <trip id="veh242" type="veh_passenger" depart="312.23" departLane="best" from="319677999#2" to="-1060254070#0"/>
    <trip id="veh243" type="veh_passenger" depart="313.52" departLane="best" from="1060254071" to="27811156#0"/>
    <trip id="veh244" type="veh_passenger" depart="314.81" departLane="best" from="-1075931143#0" to="422206263#0"/>
    <trip id="veh245" type="veh_passenger" depart="316.10" departLane="best" from="-27796679#3" to="160774592"/>
    <trip id="veh246" type="veh_passenger" depart="317.39" departLane="best" departSpeed="max" from="-146496700" to="106972920#1"/>
    <trip id="veh247" type="veh_passenger" depart="318.68" departLane="best" departSpeed="max" from="-524568471#4" to="-99979556#0"/>
    <trip id="veh248" type="veh_passenger" depart="319.97" departLane="best" from="553681859#3" to="106972920#1"/>
    <trip id="veh250" type="veh_passenger" depart="322.55" departLane="best" from="-826049217#1" to="-162311604#0"/>
    <trip id="veh251" type="veh_passenger" depart="323.84" departLane="best" from="-1060254070#2" to="256938736#4"/>
    <trip id="veh252" type="veh_passenger" depart="325.13" departLane="best" from="99979625" to="105432256"/>
    <trip id="veh253" type="veh_passenger" depart="326.42" departLane="best" from="422206222#3" to="62061433#1"/>
    <trip id="veh254" type="veh_passenger" depart="327.71" departLane="best" from="422206243#0" to="61816161#1"/>
    <trip id="veh255" type="veh_passenger" depart="329.00" departLane="best" from="-1060254072" to="-27811740#0"/>
    <trip id="veh256" type="veh_passenger" depart="330.29" departLane="best" from="-265043745" to="423314373#1"/>
    <trip id="veh257" type="veh_passenger" depart="331.59" departLane="best" from="275970114#2" to="-61857815"/>
    <trip id="veh258" type="veh_passenger" depart="332.88" departLane="best" from="432530595" to="61857817#1"/>
    <trip id="veh259" type="veh_passenger" depart="334.17" departLane="best" departSpeed="max" from="-382844528#3" to="319980895"/>