<?xml version="1.0" encoding="UTF-8"?>

<!-- generated on 2022-07-25 13:50:05 by Eclipse SUMO duarouter Version 1.13.0
<configuration xmlns:xsi="http://www.w3.org/2001/XMLSchema-instance" xsi:noNamespaceSchemaLocation="http://sumo.dlr.de/xsd/duarouterConfiguration.xsd">

    <input>
        <net-file value="F:\projects\streamlit\streamlit_book\sumo_demo1\2022-07-25-13-49-47\osm.net.xml"/>
        <route-files value="F:\projects\streamlit\streamlit_book\sumo_demo1\2022-07-25-13-49-47\osm.bus.trips.xml"/>
    </input>

    <output>
        <output-file value="F:\projects\streamlit\streamlit_book\sumo_demo1\2022-07-25-13-49-47\osm.bus.trips.xml.tmp"/>
        <write-trips value="true"/>
    </output>

    <time>
        <begin value="0"/>
        <end value="3600"/>
    </time>

    <report>
        <no-warnings value="true"/>
        <ignore-errors value="true"/>
        <no-step-log value="true"/>
    </report>

</configuration>
-->

<routes xmlns:xsi="http://www.w3.org/2001/XMLSchema-instance" xsi:noNamespaceSchemaLocation="http://sumo.dlr.de/xsd/routes_file.xsd">
    <vType id="bus_bus" vClass="bus"/>
    <trip id="bus0" type="bus_bus" depart="0.00" departLane="best" from="27811156#6" to="-105830916#2"/>
    <trip id="bus1" type="bus_bus" depart="3.87" departLane="best" departSpeed="max" from="-779254398" to="-52458554#0"/>
    <trip id="bus2" type="bus_bus" depart="7.74" departLane="best" from="432974118#3" to="422206222#2"/>
    <trip id="bus3" type="bus_bus" depart="11.61" departLane="best" from="89637326#0" to="-161318989#3"/>
    <trip id="bus4" type="bus_bus" depart="15.48" departLane="best" departSpeed="max" from="-99979624" to="-1060254070#2"/>
    <trip id="bus5" type="bus_bus" depart="19.35" departLane="best" departSpeed="max" from="-423287196#3" to="158323735#2"/>
    <trip id="bus6" type="bus_bus" depart="23.22" departLane="best" from="-1061607204" to="-422206243#1"/>
    <trip id="bus7" type="bus_bus" depart="27.09" departLane="best" from="309231778#4" to="223942066#1"/>
    <trip id="bus8" type="bus_bus" depart="30.97" departLane="best" departSpeed="max" from="-423287196#3" to="256938736#3"/>
    <trip id="bus9" type="bus_bus" depart="34.84" departLane="best" from="61879252#1" to="-1044280141#0"/>
    <trip id="bus10" type="bus_bus" depart="38.71" departLane="best" from="61862485" to="423314373#1"/>
    <trip id="bus11" type="bus_bus" depart="42.58" departLane="best" from="-91364623#1" to="-27796679#5"/>
    <trip id="bus12" type="bus_bus" depart="46.45" departLane="best" departSpeed="max" from="96779088#0" to="-91828646#1"/>
    <trip id="bus13" type="bus_bus" depart="50.32" departLane="best" from="854929432#3" to="27796679#4"/>
    <trip id="bus14" type="bus_bus" depart="54.19" departLane="best" from="61877416#1" to="436666796#3"/>
    <trip id="bus15" type="bus_bus" depart="58.06" departLane="best" from="161318989#3" to="99979560#1"/>
    <trip id="bus16" type="bus_bus" depart="61.93" departLane="best" from="-957457981#0" to="223957412"/>
    <trip id="bus18" type="bus_bus" depart="69.67" departLane="best" from="89545544" to="254468842"/>
    <trip id="bus19" type="bus_bus" depart="73.54" departLane="best" from="423287196#0" to="-137684671#4"/>
    <trip id="bus20" type="bus_bus" depart="77.41" departLane="best" from="-423517904#1" to="-89637182#0"/>
    <trip id="bus21" type="bus_bus" depart="81.28" departLane="best" from="-155900479#1" to="-52502912#1"/>
    <trip id="bus22" type="bus_bus" depart="85.15" departLane="best" from="-165486156#2" to="-857565970#2"/>
    <trip id="bus23" type="bus_bus" depart="89.02" departLane="best" from="27811156#1" to="-99978914#0"/>
    <trip id="bus24" type="bus_bus" depart="92.90" departLane="best" from="-94327820#5" to="-423517904#1"/>
    <trip id="bus25" type="bus_bus" depart="96.77" departLane="best" from="-684111938" to="94327820#1"/>
    <trip id="bus26" type="bus_bus" depart="100.64" departLane="best" from="309231778#2" to="27811151#0"/>
    <trip id="bus27" type="bus_bus" depart="104.51" departLane="best" from="-291319631#2" to="436666796#3"/>
    <trip id="bus28" type="bus_bus" depart="108.38" departLane="best" from="-27811156#0" to="-99979559#0"/>
    <trip id="bus29" type="bus_bus" depart="112.25" departLane="best" from="99979563#0" to="319126771#1"/>
    <trip id="bus30" type="bus_bus" depart="116.12" departLane="best" departSpeed="max" from="165486156#0" to="422921345"/>
    <trip id="bus31" type="bus_bus" depart="119.99" departLane="best" from="-423517904#2" to="-1061577694#0"/>
    <trip id="bus32" type="bus_bus" depart="123.86" departLane="best" departSpeed="max" from="-89566371#4" to="-826049216"/>
    <trip id="bus33" type="bus_bus" depart="127.73" departLane="best" from="-422206243#2" to="949327406#1"/>
    <trip id="bus34" type="bus_bus" depart="131.60" departLane="best" departSpeed="max" from="89637182#0" to="-89642715#1"/>
    <trip id="bus35" type="bus_bus" depart="135.47" departLane="best" from="318198216#3" to="100102162#1"/>
    <trip id="bus36" type="bus_bus" depart="139.34" departLane="best" from="91364633#1" to="142488977"/>
    <trip id="bus37" type="bus_bus" depart="143.21" departLane="best" from="188614447#1" to="-779254400"/>
    <trip id="bus38" type="bus_bus" depart="147.08" departLane="best" departSpeed="max" from="233257351" to="91205109#0"/>
    <trip id="bus39" type="bus_bus" depart="150.96" departLane="best" from="-99979559#1" to="-524568465"/>
    <trip id="bus40" type="bus_bus" depart="154.83" departLane="best" from="-162311604#0" to="-140809511"/>
    <trip id="bus41" type="bus_bus" depart="158.70" departLane="best" departSpeed="max" from="-223942066#1" to="309231778#4"/>
    <trip id="bus42" type="bus_bus" depart="162.57" departLane="best" from="61816161#2" to="1060254070#2"/>
    <trip id="bus43" type="bus_bus" depart="166.44" departLane="best" departSpeed="max" from="-146496700" to="-99979560#1"/>
    <trip id="bus44" type="bus_bus" depart="170.31" departLane="best" from="99979603" to="165397335#0"/>
    <trip id="bus45" type="bus_bus" depart="174.18" departLane="best" from="99978920#1" to="89562525#1"/>
    <trip id="bus46" type="bus_bus" depart="178.05" departLane="best" departSpeed="max" from="-1056474963#1" to="432974118#3"/>
    <trip id="bus47" type="bus_bus" depart="181.92" departLane="best" from="382844495#2" to="190247403#1"/>
    <trip id="bus48" type="bus_bus" depart="185.79" departLane="best" from="-684111938" to="319126771#2"/>
    <trip id="bus49" type="bus_bus" depart="189.66" departLane="best" departSpeed="max" from="-223942066#1" to="106972916"/>
    <trip id="bus50" type="bus_bus" depart="193.53" departLane="best" from="1060254067#2" to="96779088#1"/>
    <trip id="bus51" type="bus_bus" depart="197.40" departLane="best" departSpeed="max" from="89637182#0" to="-779254400"/>
    <trip id="bus52" type="bus_bus" depart="201.27" departLane="best" departSpeed="max" from="91364630" to="89637182#3"/>
    <trip id="bus53" type="bus_bus" depart="205.14" departLane="best" departSpeed="max" from="-854929433#4" to="319126771#0"/>
    <trip id="bus54" type="bus_bus" depart="209.01" departLane="best" from="256938735#6" to="-27796679#1"/>
    <trip id="bus55" type="bus_bus" depart="212.89" departLane="best" from="52502392#2" to="192105384#1"/>
    <trip id="bus56" type="bus_bus" depart="216.76" departLane="best" departSpeed="max" from="61812079#0" to="165397335#2"/>
    <trip id="bus57" type="bus_bus" depart="220.63" departLane="best" from="-1060254067#0" to="93690090#0"/>
    <trip id="bus58" type="bus_bus" depart="224.50" departLane="best" from="89637244#0" to="854929432#2"/>
    <trip id="bus59" type="bus_bus" depart="228.37" departLane="best" from="-89545382#1" to="-147399827#0"/>
    <trip id="bus60" type="bus_bus" depart="232.24" departLane="best" from="89637182#3" to="949327407"/>
    <trip id="bus61" type="bus_bus" depart="236.11" departLane="best" from="-161318989#2" to="155882970"/>
    <trip id="bus62" type="bus_bus" depart="239.98" departLane="best" from="-155882945" to="61814416#1"/>
    <trip id="bus63" type="bus_bus" depart="243.85" departLane="best" departSpeed="max" from="52502912#0" to="-233257351"/>
    <trip id="bus65" type="bus_bus" depart="251.59" departLane="best" departSpeed="max" from="-62352731#3" to="89637244#2"/>
    <trip id="bus66" type="bus_bus" depart="255.46" departLane="best" departSpeed="max" from="-99979624" to="-425461020#0"/>
    <trip id="bus67" type="bus_bus" depart="259.33" departLane="best" from="162239103#0" to="436666796#4"/>
    <trip id="bus68" type="bus_bus" depart="263.20" departLane="best" from="-414745094#0" to="-89638687#1"/>
    <trip id="bus69" type="bus_bus" depart="267.07" departLane="best" from="99979602#1" to="332813232#1"/>
    <trip id="bus70" type="bus_bus" depart="270.94" departLane="best" departSpeed="max" from="1056474964" to="162239103#1"/>
    <trip id="bus71" type="bus_bus" depart="274.82" departLane="best" departSpeed="max" from="-224217800" to="-52458711"/>
    <trip id="bus72" type="bus_bus" depart="278.69" departLane="best" from="-89642716" to="256938736#2"/>
    <trip id="bus73" type="bus_bus" depart="282.56" departLane="best" from="-423517904#3" to="-524568471#0"/>
    <trip id="bus74" type="bus_bus" depart="286.43" departLane="best" from="-155882951#1" to="318198216#0"/>
    <trip id="bus75" type="bus_bus" depart="290.30" departLane="best" from="-423517904#2" to="91734407#0"/>
    <trip id="bus76" type="bus_bus" depart="294.17" departLane="best" from="863056911" to="-155900461#1"/>
    <trip id="bus77" type="bus_bus" depart="298.04" departLane="best" from="-422206263#3" to="-237175531#1"/>
    <trip id="bus78" type="bus_bus" depart="301.91" departLane="best" from="91828678#0" to="237318476"/>
    <trip id="bus79" type="bus_bus" depart="305.78" departLane="best" from="1075931142" to="62061433#1"/>
    <trip id="bus80" type="bus_bus" depart="309.65" departLane="best" from="-162311606#4" to="1061607204"/>
    <trip id="bus81" type="bus_bus" depart="313.52" departLane="best" departSpeed="max" from="-99979624" to="142741651#2"/>
    <trip id="bus82" type="bus_bus" depart="317.39" departLane="best" from="425461020#5" to="414745094#2"/>
    <trip id="bus83" type="bus_bus" depart="321.26" departLane="best" from="99979560#1" to="-165397335#1"/>
    <trip id="bus84" type="bus_bus" depart="325.13" departLane="best" from="-99979561#0" to="-92361436#1"/>
    <trip id="bus85" type="bus_bus" depart="329.00" departLane="best" from="89545544" to="-62352731#0"/>
    <trip id="bus86" type="bus_bus" depart="332.88" departLane="best" from="-382844528#0" to="137684671#0"/>
    <trip id="bus87" type="bus_bus" depart="336.75" departLane="best" departSpeed="max" from="-99979624" to="-857565970#2"/>
    <trip id="bus88" type="bus_bus" depart="340.62" departLane="best" from="-52502392#2" to="91828646#1"/>
    <trip id="bus89" type="bus_bus" depart="344.49" departLane="best" departSpeed="max" from="105830599#0" to="89562525#1"/>
    <trip id="bus90" type="bus_bus" depart="348.36" departLane="best" from="162311606#3" to="-141166607#0"/>
    <trip id="bus91" type="bus_bus" depart="352.23" departLane="best" from="99979625" to="854929433#2"/>
    <trip id="bus92" type="bus_bus" depart="356.10" departLane="best" from="99978917" to="92361436#1"/>
    <trip id="bus93" type="bus_bus" depart="359.97" departLane="best" from="-99979560#1" to="-147399827#0"/>
    <trip id="bus94" type="bus_bus" depart="363.84" departLane="best" from="-957457981#0" to="99979578#1"/>
    <trip id="bus95" type="bus_bus" depart="367.71" departLane="best" departSpeed="max" from="-62352731#3" to="62061433#1"/>
    <trip id="bus96" type="bus_bus" depart="371.58" departLane="best" departSpeed="max" from="96779088#0" to="99979616"/>
    <trip id="bus97" type="bus_bus" depart="375.45" departLane="best" departSpeed="max" from="165486156#0" to="432530595"/>
    <trip id="bus98" type="bus_bus" depart="379.32" departLane="best" from="-27796679#4" to="-89637244#2"/>
    <trip id="bus99" type="bus_bus" depart="383.19" departLane="best" from="99978916#1" to="254468842"/>
    <trip id="bus100" type="bus_bus" depart="387.06" departLane="best" from="162311599#1" to="52458554#1"/>
    <trip id="bus101" type="bus_bus" depart="390.93" departLane="best" departSpeed="max" from="-146496699#2" to="256938735#3"/>
    <trip id="bus102" type="bus_bus" depart="394.81" departLane="best" from="155882951#0" to="89562363#0"/>
    <trip id="bus103" type="bus_bus" depart="398.68" departLane="best" from="-155900479#1" to="-382844195"/>
    <trip id="bus104" type="bus_bus" depart="402.55" departLane="best" from="254468111#1" to="422206222#0"/>
    <trip id="bus105" type="bus_bus" depart="406.42" departLane="best" from="-432528029" to="-223957414#0"/>
    <trip id="bus106" type="bus_bus" depart="410.29" departLane="best" from="89637284#0" to="-62352731#0"/>
    <trip id="bus107" type="bus_bus" depart="414.16" departLane="best" from="254468111#0" to="291319631#1"/>
    <trip id="bus108" type="bus_bus" depart="418.03" departLane="best" from="-99979605#1" to="256938735#3"/>
    <trip id="bus109" type="bus_bus" depart="421.90" departLane="best" from="158323735#0" to="93690091#2"/>
    <trip id="bus110" type="bus_bus" depart="425.77" departLane="best" departSpeed="max" from="-414745094#2" to="425461020#3"/>
    <trip id="bus111" type="bus_bus" depart="429.64" departLane="best" from="319980983" to="-89637250#0"/>
    <trip id="bus112" type="bus_bus" depart="433.51" departLane="best" from="-89637182#1" to="52502392#3"/>
    <trip id="bus113" type="bus_bus" depart="437.38" departLane="best" from="-155883037#1" to="142488976"/>
    <trip id="bus114" type="bus_bus" depart="441.25" departLane="best" from="-155883037#2" to="-425461020#2"/>
    <trip id="bus115" type="bus_bus" depart="445.12" departLane="best" from="89637244#3" to="89637249#3"/>
    <trip id="bus116" type="bus_bus" depart="448.99" departLane="best" from="-94327820#4" to="-27811140#2"/>
    <trip id="bus117" type="bus_bus" depart="452.87" departLane="best" from="779254399#1" to="423517904#1"/>
    <trip id="bus118" type="bus_bus" depart="456.74" departLane="best" from="256938736#3" to="99979602#1"/>
    <trip id="bus119" type="bus_bus" depart="460.61" departLane="best" from="318198216#0" to="-1044280141#0"/>
    <trip id="bus121" type="bus_bus" depart="468.35" departLane="best" from="319125074#2" to="94327820#4"/>
    <trip id="bus122" type="bus_bus" depart="472.22" departLane="best" from="-237175532#0" to="-223942251#1"/>
    <trip id="bus123" type="bus_bus" depart="476.09" departLane="best" from="-192105384#3" to="223957413"/>
    <trip id="bus124" type="bus_bus" depart="479.96" departLane="best" from="-775888149#0" to="27796679#5"/>
    <trip id="bus125" type="bus_bus" depart="483.83" departLane="best" from="423531238" to="-422206263#3"/>
    <trip id="bus126" type="bus_bus" depart="487.70" departLane="best" from="27811151#3" to="-779254400"/>
    <trip id="bus127" type="bus_bus" depart="491.57" departLane="best" from="142488976" to="91364633#3"/>
    <trip id="bus128" type="bus_bus" depart="495.44" departLane="best" from="854929432#1" to="-162311604#1"/>
    <trip id="bus129" type="bus_bus" depart="499.31" departLane="best" departSpeed="max" from="-99979624" to="-857565970#0"/>
    <trip id="bus130" type="bus_bus" depart="503.18" departLane="best" from="27811156#3" to="-775888153"/>
    <trip id="bus131" type="bus_bus" depart="507.05" departLane="best" from="436666796#4" to="223942407#1"/>
    <trip id="bus132" type="bus_bus" depart="510.92" departLane="best" from="100944617" to="-1044280141#1"/>
    <trip id="bus133" type="bus_bus" depart="514.80" departLane="best" from="-155900461#3" to="89637281"/>
    <trip id="bus134" type="bus_bus" depart="518.67" departLane="best" from="91203401#4" to="223942066#1"/>
    <trip id="bus136" type="bus_bus" depart="526.41" departLane="best" from="-274927810" to="-233257351"/>
    <trip id="bus137" type="bus_bus" depart="530.28" departLane="best" from="-89545832#1" to="91205109#1"/>
    <trip id="bus138" type="bus_bus" depart="534.15" departLane="best" from="89638687#3" to="-423517904#2"/>
    <trip id="bus139" type="bus_bus" depart="538.02" departLane="best" from="-52502392#2" to="-165486156#0"/>
    <trip id="bus140" type="bus_bus" depart="541.89" departLane="best" departSpeed="max" from="61812079#0" to="89637282#0"/>
    <trip id="bus141" type="bus_bus" depart="545.76" departLane="best" from="-99979574#0" to="291319631#2"/>
    <trip id="bus142" type="bus_bus" depart="549.63" departLane="best" from="-27796679#4" to="93690090#1"/>
    <trip id="bus143" type="bus_bus" depart="553.50" departLane="best" from="89562363#1" to="99979562#0"/>
    <trip id="bus144" type="bus_bus" depart="557.37" departLane="best" from="61957137" to="89637250#2"/>
    <trip id="bus145" type="bus_bus" depart="561.24" departLane="best" from="-1061577694#0" to="524568467#0"/>
    <trip id="bus146" type="bus_bus" depart="565.11" departLane="best" from="-89637282#3" to="93690091#0"/>
    <trip id="bus147" type="bus_bus" depart="568.98" departLane="best" from="61817154#1" to="89566371#2"/>
    <trip id="bus149" type="bus_bus" depart="576.73" departLane="best" from="61814416#2" to="-190247403#2"/>
    <trip id="bus150" type="bus_bus" depart="580.60" departLane="best" from="89566371#3" to="89562363#5"/>
    <trip id="bus151" type="bus_bus" depart="584.47" departLane="best" from="-423314370#0" to="781272626#2"/>
    <trip id="bus152" type="bus_bus" depart="588.34" departLane="best" from="61816161#6" to="-52502392#3"/>
    <trip id="bus153" type="bus_bus" depart="592.21" departLane="best" from="-1060254072" to="-414745094#0"/>
    <trip id="bus154" type="bus_bus" depart="596.08" departLane="best" from="-89637250#2" to="89566371#2"/>
    <trip id="bus155" type="bus_bus" depart="599.95" departLane="best" from="99978914#1" to="-857565971"/>
    <trip id="bus156" type="bus_bus" depart="603.82" departLane="best" from="27811740#1" to="1015404008"/>
    <trip id="bus157" type="bus_bus" depart="607.69" departLane="best" from="99979558" to="188614447#3"/>
    <trip id="bus158" type="bus_bus" depart="611.56" departLane="best" from="93690068#1" to="-223942251#1"/>
    <trip id="bus159" type="bus_bus" depart="615.43" departLane="best" from="99978920#0" to="-319830356"/>
    <trip id="bus160" type="bus_bus" depart="619.30" departLane="best" from="96779089" to="-779254400"/>
    <trip id="bus161" type="bus_bus" depart="623.17" departLane="best" from="-223942066#0" to="106972916"/>
    <trip id="bus162" type="bus_bus" depart="627.04" departLane="best" from="425461020#4" to="-89642715#0"/>
    <trip id="bus163" type="bus_bus" depart="630.91" departLane="best" from="256938735#2" to="161318989#0"/>
    <trip id="bus164" type="bus_bus" depart="634.79" departLane="best" from="-99978914#1" to="254468842"/>
    <trip id="bus165" type="bus_bus" depart="638.66" departLane="best" from="-61814416#2" to="425459416#2"/>
    <trip id="bus166" type="bus_bus" depart="642.53" departLane="best" from="-100102162#2" to="92361436#0"/>
    <trip id="bus167" type="bus_bus" depart="646.40" departLane="best" from="161318989#7" to="432974118#0"/>
    <trip id="bus168" type="bus_bus" depart="650.27" departLane="best" departSpeed="max" from="436666797" to="414745094#1"/>
    <trip id="bus169" type="bus_bus" depart="654.14" departLane="best" departSpeed="max" from="-93690091#2" to="-155883037#3"/>
    <trip id="bus170" type="bus_bus" depart="658.01" departLane="best" from="319125074#3" to="-91828642#0"/>
    <trip id="bus171" type="bus_bus" depart="661.88" departLane="best" departSpeed="max" from="-89566371#4" to="863056911"/>
    <trip id="bus172" type="bus_bus" depart="665.75" departLane="best" from="425459416#1" to="-89637250#0"/>
    <trip id="bus173" type="bus_bus" depart="669.62" departLane="best" from="-89566371#0" to="1056474963#1"/>
    <trip id="bus174" type="bus_bus" depart="673.49" departLane="best" from="-99979561#0" to="-89637244#1"/>
    <trip id="bus175" type="bus_bus" depart="677.36" departLane="best" departSpeed="max" from="-233258650" to="1060254070#0"/>
    <trip id="bus176" type="bus_bus" depart="681.23" departLane="best" from="93690090#0" to="422206222#3"/>
    <trip id="bus177" type="bus_bus" depart="685.10" departLane="best" from="91203401#1" to="27811156#5"/>
    <trip id="bus178" type="bus_bus" depart="688.97" departLane="best" from="-857565970#2" to="223942192"/>
    <trip id="bus179" type="bus_bus" depart="692.85" departLane="best" from="-100102162#0" to="-89566371#1"/>
    <trip id="bus180" type="bus_bus" depart="696.72" departLane="best" from="1015404008" to="255219177"/>
    <trip id="bus181" type="bus_bus" depart="700.59" departLane="best" from="318198216#2" to="142741651#2"/>
    <trip id="bus182" type="bus_bus" depart="704.46" departLane="best" departSpeed="max" from="105830599#0" to="-425461020#3"/>
    <trip id="bus183" type="bus_bus" depart="708.33" departLane="best" from="1075931143#1" to="91364623#1"/>
    <trip id="bus184" type="bus_bus" depart="712.20" departLane="best" from="61816161#7" to="-291319631#0"/>
    <trip id="bus185" type="bus_bus" depart="716.07" departLane="best" departSpeed="max" from="324478165" to="-52458711"/>
    <trip id="bus186" type="bus_bus" depart="719.94" departLane="best" from="-390566342" to="-105830916#1"/>
    <trip id="bus187" type="bus_bus" depart="723.81" departLane="best" departSpeed="max" from="-524568471#4" to="146496700"/>
    <trip id="bus188" type="bus_bus" depart="727.68" departLane="best" from="854929433#0" to="-155900461#5"/>
    <trip id="bus189" type="bus_bus" depart="731.55" departLane="best" departSpeed="max" from="-99979604" to="310010240"/>
    <trip id="bus190" type="bus_bus" depart="735.42" departLane="best" departSpeed="max" from="-382844528#3" to="423314370#2"/>
    <trip id="bus191" type="bus_bus" depart="739.29" departLane="best" departSpeed="max" from="147399827#0" to="-61857815"/>
    <trip id="bus192" type="bus_bus" depart="743.16" departLane="best" from="318198217" to="-1044280141#0"/>
    <trip id="bus193" type="bus_bus" depart="747.03" departLane="best" from="524566662" to="61816318#1"/>
    <trip id="bus194" type="bus_bus" depart="750.90" departLane="best" from="-192105384#2" to="1061577694#1"/>
    <trip id="bus195" type="bus_bus" depart="754.78" departLane="best" from="-319055639#0" to="99978917"/>
    <trip id="bus196" type="bus_bus" depart="758.65" departLane="best" from="155900473" to="-141166607#0"/>
    <trip id="bus198" type="bus_bus" depart="766.39" departLane="best" from="254468111#1" to="96779084"/>
    <trip id="bus199" type="bus_bus" depart="770.26" departLane="best" from="89637284#1" to="27811156#1"/>
    <trip id="bus200" type="bus_bus" depart="774.13" departLane="best" from="425459416#1" to="158323735#1"/>
    <trip id="bus201" type="bus_bus" depart="778.00" departLane="best" from="775888149#1" to="223942192"/>
    <trip id="bus202" type="bus_bus" depart="781.87" departLane="best" from="89638687#1" to="524568471#4"/>
    <trip id="bus204" type="bus_bus" depart="789.61" departLane="best" from="-52458711" to="319125074#3"/>
    <trip id="bus205" type="bus_bus" depart="793.48" departLane="best" departSpeed="max" from="52502912#0" to="162311603"/>
    <trip id="bus206" type="bus_bus" depart="797.35" departLane="best" from="27796679#4" to="-854929433#0"/>
    <trip id="bus207" type="bus_bus" depart="801.22" departLane="best" from="-155900473" to="-89545832#1"/>
    <trip id="bus208" type="bus_bus" depart="805.09" departLane="best" from="-775888147#0" to="-91364630"/>
    <trip id="bus209" type="bus_bus" depart="808.96" departLane="best" from="162239103#1" to="-256938735#0"/>
    <trip id="bus210" type="bus_bus" depart="812.83" departLane="best" from="-425461020#1" to="423314370#2"/>
    <trip id="bus211" type="bus_bus" depart="816.71" departLane="best" from="423314370#0" to="-147606589#3"/>
    <trip id="bus212" type="bus_bus" depart="820.58" departLane="best" from="-99979578#0" to="223942066#0"/>
    <trip id="bus213" type="bus_bus" depart="824.45" departLane="best" departSpeed="max" from="-99979604" to="-423314370#0"/>
    <trip id="bus214" type="bus_bus" depart="828.32" departLane="best" departSpeed="max" from="-99979624" to="91364633#3"/>
    <trip id="bus215" type="bus_bus" depart="832.19" departLane="best" departSpeed="max" from="233257351" to="423314370#2"/>
    <trip id="bus216" type="bus_bus" depart="836.06" departLane="best" from="857565973" to="61816161#2"/>
    <trip id="bus217" type="bus_bus" depart="839.93" departLane="best" from="-96779084" to="-1044280141#0"/>
    <trip id="bus218" type="bus_bus" depart="843.80" departLane="best" from="-91828642#3" to="52502912#1"/>
    <trip id="bus219" type="bus_bus" depart="847.67" departLane="best" from="857565970#2" to="96779088#1"/>
    <trip id="bus220" type="bus_bus" depart="851.54" departLane="best" from="-99979605#1" to="52458554#0"/>
    <trip id="bus221" type="bus_bus" depart="855.41" departLane="best" from="162311604#2" to="27796679#3"/>
    <trip id="bus222" type="bus_bus" depart="859.28" departLane="best" departSpeed="max" from="-423287196#3" to="-524568465"/>
    <trip id="bus223" type="bus_bus" depart="863.15" departLane="best" from="1044280141#2" to="-1060254070#1"/>
    <trip id="bus224" type="bus_bus" depart="867.02" departLane="best" from="1061607198" to="-233257351"/>
    <trip id="bus225" type="bus_bus" depart="870.89" departLane="best" from="275970114#2" to="-1060254067#0"/>
    <trip id="bus226" type="bus_bus" depart="874.77" departLane="best" from="-1061607204" to="319677999#2"/>
    <trip id="bus227" type="bus_bus" depart="878.64" departLane="best" from="-237318475" to="142488977"/>
    <trip id="bus228" type="bus_bus" depart="882.51" departLane="best" from="-142741651#1" to="-99979556#3"/>
    <trip id="bus229" type="bus_bus" depart="886.38" departLane="best" from="-422206250" to="-91734407#1"/>
    <trip id="bus230" type="bus_bus" depart="890.25" departLane="best" from="52502392#0" to="-99979556#3"/>
    <trip id="bus231" type="bus_bus" depart="894.12" departLane="best" from="524568467#0" to="854929432#2"/>
    <trip id="bus232" type="bus_bus" depart="897.99" departLane="best" from="-52502912#2" to="-158323737"/>
    <trip id="bus233" type="bus_bus" depart="901.86" departLane="best" from="-1060254067#0" to="192105384#1"/>
    <trip id="bus234" type="bus_bus" depart="905.73" departLane="best" from="99979625" to="-949327407"/>
    <trip id="bus235" type="bus_bus" depart="909.60" departLane="best" from="309231778#4" to="61957183"/>
    <trip id="bus236" type="bus_bus" depart="913.47" departLane="best" from="309232093" to="52502912#2"/>
    <trip id="bus237" type="bus_bus" depart="917.34" departLane="best" from="949327406#0" to="-422206243#2"/>
    <trip id="bus238" type="bus_bus" depart="921.21" departLane="best" from="-1060254067#1" to="-27796679#1"/>
    <trip id="bus239" type="bus_bus" depart="925.08" departLane="best" from="-224217801#2" to="414745094#0"/>
    <trip id="bus240" type="bus_bus" depart="928.95" departLane="best" from="190247403#2" to="-478976485"/>
    <trip id="bus241" type="bus_bus" depart="932.82" departLane="best" from="422206250" to="61816161#4"/>
    <trip id="bus242" type="bus_bus" depart="936.70" departLane="best" from="444087520#0" to="-223942251#0"/>
    <trip id="bus243" type="bus_bus" depart="940.57" departLane="best" from="67008393" to="99979555#0"/>
    <trip id="bus244" type="bus_bus" depart="944.44" departLane="best" from="-192105384#4" to="-105830916#2"/>
    <trip id="bus245" type="bus_bus" depart="948.31" departLane="best" departSpeed="max" from="-89566371#4" to="422206222#3"/>
    <trip id="bus246" type="bus_bus" depart="952.18" departLane="best" departSpeed="max" from="96779088#0" to="100102162#2"/>
    <trip id="bus247" type="bus_bus" depart="956.05" departLane="best" from="423517904#1" to="-155900479#1"/>
    <trip id="bus248" type="bus_bus" depart="959.92" departLane="best" from="390566342" to="309231778#4"/>
    <trip id="bus249" type="bus_bus" depart="963.79" departLane="best" from="-165486156#3" to="61822411"/>
    <trip id="bus250" type="bus_bus" depart="967.66" departLane="best" from="854929433#1" to="27796679#0"/>
    <trip id="bus251" type="bus_bus" depart="971.53" departLane="best" departSpeed="max" from="-224217800" to="99979578#1"/>
    <trip id="bus252" type="bus_bus" depart="975.40" departLane="best" from="61812351" to="-94327820#4"/>
    <trip id="bus253" type="bus_bus" depart="979.27" departLane="best" from="100944827" to="-99979310#0"/>
    <trip id="bus254" type="bus_bus" depart="983.14" departLane="best" from="155882977#0" to="-93690068#1"/>
    <trip id="bus256" type="bus_bus" depart="990.88" departLane="best" from="27811156#1" to="826049218"/>
    <trip id="bus257" type="bus_bus" depart="994.76" departLane="best" from="423314370#1" to="106972918"/>
    <trip id="bus258" type="bus_bus" depart="998.63" departLane="best" from="432530595" to="99979555#1"/>
    <trip id="bus259" type="bus_bus" depart="1002.50" departLane="best" from="-74658012#1" to="779254398"/>
    <trip id="bus260" type="bus_bus" depart="1006.37" departLane="best" from="161318989#6" to="155882945"/>
    <trip id="bus261" type="bus_bus" depart="1010.24" departLane="best" from="1044280141#2" to="444087516"/>
    <trip id="bus262" type="bus_bus" depart="1014.11" departLane="best" from="-684111940#0" to="89545832#1"/>
    <trip id="bus263" type="bus_bus" depart="1017.98" departLane="best" from="775888149#1" to="-161318989#3"/>
    <trip id="bus264" type="bus_bus" depart="1021.85" departLane="best" from="1061577700" to="27811151#2"/>
    <trip id="bus265" type="bus_bus" depart="1025.72" departLane="best" from="-957457981#0" to="-1060254070#0"/>
    <trip id="bus266" type="bus_bus" depart="1029.59" departLane="best" from="854929433#2" to="-324478165"/>